<?xml version="1.0" encoding="UTF-8"?>

<!-- generated on Thu Dec  7 22:34:52 2017 by SUMO netconvert Version 0.31.0
<?xml version="1.0" encoding="UTF-8"?>

<configuration xmlns:xsi="http://www.w3.org/2001/XMLSchema-instance" xsi:noNamespaceSchemaLocation="http://sumo.dlr.de/xsd/netconvertConfiguration.xsd">

    <input>
        <osm-files value="galciana.osm"/>
    </input>

    <output>
        <output-file value="galciana.net.xml"/>
        <output.street-names value="true"/>
        <output.original-names value="true"/>
    </output>

    <projection>
        <proj.utm value="true"/>
    </projection>

</configuration>
-->

<net version="0.27" xmlns:xsi="http://www.w3.org/2001/XMLSchema-instance" xsi:noNamespaceSchemaLocation="http://sumo.dlr.de/xsd/net_file.xsd">

    <location netOffset="-663366.04,-4859982.96" convBoundary="0.00,0.00,3171.42,2177.75" origBoundary="11.024580,43.846078,11.086032,43.907936" projParameter="+proj=utm +zone=32 +ellps=WGS84 +datum=WGS84 +units=m +no_defs"/>

    <type id="highway.bridleway" priority="1" numLanes="1" speed="2.78" allow="pedestrian" oneway="1" width="2.00"/>
    <type id="highway.bus_guideway" priority="1" numLanes="1" speed="8.33" allow="bus" oneway="1"/>
    <type id="highway.cycleway" priority="1" numLanes="1" speed="5.56" allow="bicycle" oneway="0" width="1.00"/>
    <type id="highway.footway" priority="1" numLanes="1" speed="2.78" allow="pedestrian" oneway="1" width="2.00"/>
    <type id="highway.ford" priority="1" numLanes="1" speed="2.78" allow="army" oneway="0"/>
    <type id="highway.living_street" priority="3" numLanes="1" speed="2.78" disallow="tram rail_urban rail rail_electric ship" oneway="0"/>
    <type id="highway.motorway" priority="13" numLanes="2" speed="44.44" allow="private emergency authority army vip passenger hov taxi bus coach delivery truck trailer motorcycle evehicle custom1 custom2" oneway="1"/>
    <type id="highway.motorway_link" priority="12" numLanes="1" speed="22.22" allow="private emergency authority army vip passenger hov taxi bus coach delivery truck trailer motorcycle evehicle custom1 custom2" oneway="1"/>
    <type id="highway.path" priority="1" numLanes="1" speed="2.78" allow="bicycle pedestrian" oneway="1" width="2.00"/>
    <type id="highway.pedestrian" priority="1" numLanes="1" speed="2.78" allow="pedestrian" oneway="1" width="2.00"/>
    <type id="highway.primary" priority="9" numLanes="2" speed="27.78" disallow="tram rail_urban rail rail_electric ship" oneway="0"/>
    <type id="highway.primary_link" priority="8" numLanes="1" speed="22.22" disallow="tram rail_urban rail rail_electric ship" oneway="0"/>
    <type id="highway.raceway" priority="14" numLanes="2" speed="83.33" allow="vip" oneway="0"/>
    <type id="highway.residential" priority="4" numLanes="1" speed="13.89" disallow="tram rail_urban rail rail_electric ship" oneway="0"/>
    <type id="highway.secondary" priority="7" numLanes="2" speed="27.78" disallow="tram rail_urban rail rail_electric ship" oneway="0"/>
    <type id="highway.secondary_link" priority="6" numLanes="1" speed="22.22" disallow="tram rail_urban rail rail_electric ship" oneway="0"/>
    <type id="highway.service" priority="2" numLanes="1" speed="5.56" allow="delivery bicycle pedestrian" oneway="0"/>
    <type id="highway.services" priority="1" numLanes="1" speed="8.33" disallow="tram rail_urban rail rail_electric ship" oneway="0"/>
    <type id="highway.stairs" priority="1" numLanes="1" speed="1.39" allow="pedestrian" oneway="1" width="2.00"/>
    <type id="highway.step" priority="1" numLanes="1" speed="1.39" allow="pedestrian" oneway="1" width="2.00"/>
    <type id="highway.steps" priority="1" numLanes="1" speed="1.39" allow="pedestrian" oneway="1" width="2.00"/>
    <type id="highway.tertiary" priority="6" numLanes="1" speed="22.22" disallow="tram rail_urban rail rail_electric ship" oneway="0"/>
    <type id="highway.tertiary_link" priority="5" numLanes="1" speed="22.22" disallow="tram rail_urban rail rail_electric ship" oneway="0"/>
    <type id="highway.track" priority="1" numLanes="1" speed="5.56" disallow="tram rail_urban rail rail_electric ship" oneway="0"/>
    <type id="highway.trunk" priority="11" numLanes="2" speed="27.78" disallow="tram rail_urban rail rail_electric bicycle pedestrian ship" oneway="0"/>
    <type id="highway.trunk_link" priority="10" numLanes="1" speed="22.22" disallow="tram rail_urban rail rail_electric bicycle pedestrian ship" oneway="0"/>
    <type id="highway.unclassified" priority="5" numLanes="1" speed="13.89" disallow="tram rail_urban rail rail_electric ship" oneway="0"/>
    <type id="highway.unsurfaced" priority="1" numLanes="1" speed="8.33" disallow="tram rail_urban rail rail_electric ship" oneway="0"/>
    <type id="railway.light_rail" priority="15" numLanes="1" speed="27.78" allow="rail_urban" oneway="1"/>
    <type id="railway.preserved" priority="15" numLanes="1" speed="27.78" allow="rail" oneway="1"/>
    <type id="railway.rail" priority="15" numLanes="1" speed="83.33" allow="rail rail_electric" oneway="1"/>
    <type id="railway.subway" priority="15" numLanes="1" speed="27.78" allow="rail_urban" oneway="1"/>
    <type id="railway.tram" priority="15" numLanes="1" speed="13.89" allow="tram" oneway="1"/>

    <edge id=":1426014462_0" function="internal">
        <lane id=":1426014462_0_0" index="0" disallow="tram rail_urban rail rail_electric ship" speed="13.89" length="4.82" shape="920.31,529.36 920.88,527.99 921.61,527.42 922.50,527.67 923.55,528.72"/>
    </edge>
    <edge id=":1426014466_0" function="internal">
        <lane id=":1426014466_0_0" index="0" disallow="tram rail_urban rail rail_electric ship" speed="9.73" length="5.44" shape="555.36,792.49 554.01,791.62 552.74,791.29 551.57,791.51 550.48,792.28"/>
    </edge>
    <edge id=":1426014466_1" function="internal">
        <lane id=":1426014466_1_0" index="0" disallow="tram rail_urban rail rail_electric ship" speed="9.73" length="10.85" shape="555.36,792.49 553.32,790.26 552.57,787.98 553.10,785.63 554.91,783.21"/>
    </edge>
    <edge id=":1426014466_2" function="internal">
        <lane id=":1426014466_2_0" index="0" allow="delivery bicycle pedestrian" speed="5.56" length="4.82" shape="555.36,792.49 554.92,791.07 555.13,790.17 555.97,789.79 557.45,789.93"/>
    </edge>
    <edge id=":1426014466_3" function="internal">
        <lane id=":1426014466_3_0" index="0" allow="delivery bicycle pedestrian" speed="9.73" length="5.13" shape="557.24,785.55 556.38,786.69 556.13,787.80 556.49,788.88 557.45,789.93"/>
    </edge>
    <edge id=":1426014466_4" function="internal">
        <lane id=":1426014466_4_0" index="0" disallow="tram rail_urban rail rail_electric ship" speed="13.89" length="9.53" shape="557.24,785.55 550.48,792.28"/>
    </edge>
    <edge id=":1426014466_5" function="internal">
        <lane id=":1426014466_5_0" index="0" disallow="tram rail_urban rail rail_electric ship" speed="13.89" length="2.41" shape="557.24,785.55 555.78,785.84 554.90,785.55"/>
    </edge>
    <edge id=":1426014466_9" function="internal">
        <lane id=":1426014466_9_0" index="0" speed="13.89" length="2.41" shape="554.90,785.55 554.61,784.67 554.91,783.21"/>
    </edge>
    <edge id=":1426014466_6" function="internal">
        <lane id=":1426014466_6_0" index="0" disallow="tram rail_urban rail rail_electric ship" speed="13.89" length="9.53" shape="548.15,789.94 554.91,783.21"/>
    </edge>
    <edge id=":1426014466_7" function="internal">
        <lane id=":1426014466_7_0" index="0" allow="delivery bicycle pedestrian" speed="9.73" length="4.99" shape="548.15,789.94 550.31,788.37 552.58,787.85"/>
    </edge>
    <edge id=":1426014466_8" function="internal">
        <lane id=":1426014466_8_0" index="0" disallow="tram rail_urban rail rail_electric ship" speed="13.89" length="2.41" shape="548.15,789.94 549.61,789.65 550.49,789.95"/>
    </edge>
    <edge id=":1426014466_10" function="internal">
        <lane id=":1426014466_10_0" index="0" speed="9.73" length="5.38" shape="552.58,787.85 554.96,788.37 557.45,789.93"/>
    </edge>
    <edge id=":1426014466_11" function="internal">
        <lane id=":1426014466_11_0" index="0" speed="13.89" length="2.41" shape="550.49,789.95 550.77,790.82 550.48,792.28"/>
    </edge>
    <edge id=":1426014467_0" function="internal">
        <lane id=":1426014467_0_0" index="0" allow="delivery bicycle pedestrian" speed="9.73" length="6.09" shape="715.94,828.53 715.11,827.54 713.91,826.99 712.37,826.88 710.47,827.22"/>
    </edge>
    <edge id=":1426014467_1" function="internal">
        <lane id=":1426014467_1_0" index="0" disallow="tram rail_urban rail rail_electric ship" speed="13.89" length="9.67" shape="715.94,828.53 711.35,820.02"/>
    </edge>
    <edge id=":1426014467_2" function="internal">
        <lane id=":1426014467_2_0" index="0" disallow="tram rail_urban rail rail_electric ship" speed="13.89" length="2.41" shape="715.94,828.53 716.08,827.05 716.60,826.29"/>
    </edge>
    <edge id=":1426014467_9" function="internal">
        <lane id=":1426014467_9_0" index="0" speed="13.89" length="2.41" shape="716.60,826.29 717.53,826.26 718.84,826.95"/>
    </edge>
    <edge id=":1426014467_3" function="internal">
        <lane id=":1426014467_3_0" index="0" disallow="tram rail_urban rail rail_electric ship" speed="13.89" length="9.66" shape="714.25,818.46 718.84,826.95"/>
    </edge>
    <edge id=":1426014467_4" function="internal">
        <lane id=":1426014467_4_0" index="0" allow="delivery bicycle pedestrian" speed="9.73" length="5.47" shape="714.25,818.46 715.38,821.54 715.16,823.71"/>
    </edge>
    <edge id=":1426014467_5" function="internal">
        <lane id=":1426014467_5_0" index="0" disallow="tram rail_urban rail rail_electric ship" speed="13.89" length="2.41" shape="714.25,818.46 714.11,819.94 713.58,820.69"/>
    </edge>
    <edge id=":1426014467_10" function="internal">
        <lane id=":1426014467_10_0" index="0" speed="9.73" length="6.11" shape="715.16,823.71 715.13,824.03 713.49,825.92 710.47,827.22"/>
    </edge>
    <edge id=":1426014467_11" function="internal">
        <lane id=":1426014467_11_0" index="0" speed="13.89" length="2.41" shape="713.58,820.69 712.66,820.72 711.35,820.02"/>
    </edge>
    <edge id=":1426014467_6" function="internal">
        <lane id=":1426014467_6_0" index="0" disallow="tram rail_urban rail rail_electric ship" speed="9.73" length="5.30" shape="709.61,824.03 711.00,823.44 711.75,822.57 711.86,821.43 711.35,820.02"/>
    </edge>
    <edge id=":1426014467_7" function="internal">
        <lane id=":1426014467_7_0" index="0" disallow="tram rail_urban rail rail_electric ship" speed="9.73" length="10.53" shape="709.61,824.03 712.69,823.54 715.25,823.87 717.30,825.00 718.84,826.95"/>
    </edge>
    <edge id=":1426014467_8" function="internal">
        <lane id=":1426014467_8_0" index="0" allow="delivery bicycle pedestrian" speed="5.56" length="4.82" shape="709.61,824.03 711.02,824.51 711.64,825.20 711.45,826.10 710.47,827.22"/>
    </edge>
    <edge id=":1426014468_0" function="internal">
        <lane id=":1426014468_0_0" index="0" allow="delivery bicycle pedestrian" speed="5.56" length="4.54" shape="629.95,848.86 628.84,849.31 628.00,849.99 627.43,850.90 627.12,852.05"/>
    </edge>
    <edge id=":1426014468_1" function="internal">
        <lane id=":1426014468_1_0" index="0" allow="delivery bicycle pedestrian" speed="5.56" length="8.02" shape="629.95,848.86 627.84,849.20 625.88,849.07 624.06,848.46 622.37,847.38"/>
    </edge>
    <edge id=":1426014468_2" function="internal">
        <lane id=":1426014468_2_0" index="0" allow="delivery bicycle pedestrian" speed="5.56" length="4.82" shape="629.95,848.86 628.54,848.38 627.92,847.69 628.11,846.79 629.09,845.67"/>
    </edge>
    <edge id=":1426014468_3" function="internal">
        <lane id=":1426014468_3_0" index="0" allow="delivery bicycle pedestrian" speed="5.56" length="4.89" shape="624.46,844.82 625.47,845.47 626.58,845.82 627.79,845.89 629.09,845.67"/>
    </edge>
    <edge id=":1426014468_4" function="internal">
        <lane id=":1426014468_4_0" index="0" allow="delivery bicycle pedestrian" speed="5.56" length="8.07" shape="624.46,844.82 625.87,846.29 626.77,847.98 627.19,849.90 627.12,852.05"/>
    </edge>
    <edge id=":1426014468_5" function="internal">
        <lane id=":1426014468_5_0" index="0" allow="delivery bicycle pedestrian" speed="5.56" length="4.82" shape="624.46,844.82 624.90,846.25 624.70,847.15 623.85,847.52 622.37,847.38"/>
    </edge>
    <edge id=":1426014468_6" function="internal">
        <lane id=":1426014468_6_0" index="0" allow="delivery bicycle pedestrian" speed="5.56" length="4.68" shape="623.85,851.59 623.90,850.32 623.67,849.19 623.16,848.21 622.37,847.38"/>
    </edge>
    <edge id=":1426014468_7" function="internal">
        <lane id=":1426014468_7_0" index="0" allow="delivery bicycle pedestrian" speed="5.56" length="8.42" shape="623.85,851.59 624.43,849.46 625.49,847.77 627.05,846.50 629.09,845.67"/>
    </edge>
    <edge id=":1426014468_8" function="internal">
        <lane id=":1426014468_8_0" index="0" allow="delivery bicycle pedestrian" speed="5.56" length="4.82" shape="623.85,851.59 624.84,850.48 625.71,850.19 626.47,850.71 627.12,852.05"/>
    </edge>
    <edge id=":1426014469_0" function="internal">
        <lane id=":1426014469_0_0" index="0" disallow="tram rail_urban rail rail_electric ship" speed="13.89" length="4.82" shape="496.87,852.62 495.45,853.06 494.55,852.86 494.17,852.02 494.30,850.54"/>
    </edge>
    <edge id=":1426014470_0" function="internal">
        <lane id=":1426014470_0_0" index="0" allow="delivery bicycle pedestrian" speed="5.56" length="6.07" shape="624.81,867.77 624.10,866.05 623.18,865.33 622.04,865.61 620.69,866.89"/>
    </edge>
    <edge id=":1426014470_1" function="internal">
        <lane id=":1426014470_1_0" index="0" allow="delivery bicycle pedestrian" speed="5.56" length="10.86" shape="624.81,867.77 623.89,864.78 623.18,862.53 622.85,860.25 623.06,857.19"/>
    </edge>
    <edge id=":1426014470_2" function="internal">
        <lane id=":1426014470_2_0" index="0" allow="delivery bicycle pedestrian" speed="5.56" length="4.82" shape="624.81,867.77 625.28,866.36 625.97,865.75 626.88,865.93 628.00,866.91"/>
    </edge>
    <edge id=":1426014470_3" function="internal">
        <lane id=":1426014470_3_0" index="0" allow="delivery bicycle pedestrian" speed="5.56" length="9.54" shape="626.33,857.65 626.14,860.42 626.45,862.32 627.12,864.20 628.00,866.91"/>
    </edge>
    <edge id=":1426014470_4" function="internal">
        <lane id=":1426014470_4_0" index="0" allow="delivery bicycle pedestrian" speed="5.56" length="11.06" shape="626.33,857.65 625.60,860.64 624.43,862.68 622.81,864.51 620.69,866.89"/>
    </edge>
    <edge id=":1426014470_5" function="internal">
        <lane id=":1426014470_5_0" index="0" allow="delivery bicycle pedestrian" speed="5.56" length="4.82" shape="626.33,857.65 625.34,858.76 624.46,859.05 623.70,858.53 623.06,857.19"/>
    </edge>
    <edge id=":1426014470_6" function="internal">
        <lane id=":1426014470_6_0" index="0" allow="delivery bicycle pedestrian" speed="5.56" length="9.30" shape="618.13,864.80 620.03,862.76 621.44,861.36 622.43,859.78 623.06,857.19"/>
    </edge>
    <edge id=":1426014470_7" function="internal">
        <lane id=":1426014470_7_0" index="0" allow="delivery bicycle pedestrian" speed="5.56" length="14.51" shape="618.13,864.80 621.37,861.74 624.09,861.07 626.30,862.79 628.00,866.91"/>
    </edge>
    <edge id=":1426014470_8" function="internal">
        <lane id=":1426014470_8_0" index="0" allow="delivery bicycle pedestrian" speed="5.56" length="4.82" shape="618.13,864.80 619.56,864.37 620.46,864.57 620.83,865.41 620.69,866.89"/>
    </edge>
    <edge id=":1426014475_0" function="internal">
        <lane id=":1426014475_0_0" index="0" disallow="tram rail_urban rail rail_electric ship" speed="13.89" length="9.47" shape="579.66,921.91 572.31,915.94"/>
    </edge>
    <edge id=":1426014475_1" function="internal">
        <lane id=":1426014475_1_0" index="0" allow="delivery bicycle pedestrian" speed="9.73" length="5.16" shape="579.66,921.91 577.75,919.83 576.96,917.63"/>
    </edge>
    <edge id=":1426014475_2" function="internal">
        <lane id=":1426014475_2_0" index="0" disallow="tram rail_urban rail rail_electric ship" speed="13.89" length="2.41" shape="579.66,921.91 579.23,920.49 579.43,919.59"/>
    </edge>
    <edge id=":1426014475_9" function="internal">
        <lane id=":1426014475_9_0" index="0" speed="9.73" length="5.16" shape="576.96,917.63 577.30,915.33 578.76,912.91"/>
    </edge>
    <edge id=":1426014475_10" function="internal">
        <lane id=":1426014475_10_0" index="0" speed="13.89" length="2.41" shape="579.43,919.59 580.27,919.21 581.75,919.36"/>
    </edge>
    <edge id=":1426014475_3" function="internal">
        <lane id=":1426014475_3_0" index="0" disallow="tram rail_urban rail rail_electric ship" speed="9.73" length="5.00" shape="581.32,915.00 580.61,916.17 580.44,917.29 580.82,918.35 581.75,919.36"/>
    </edge>
    <edge id=":1426014475_4" function="internal">
        <lane id=":1426014475_4_0" index="0" disallow="tram rail_urban rail rail_electric ship" speed="9.73" length="10.31" shape="581.32,915.00 579.24,916.91 577.04,917.71 574.73,917.38 572.31,915.94"/>
    </edge>
    <edge id=":1426014475_5" function="internal">
        <lane id=":1426014475_5_0" index="0" allow="delivery bicycle pedestrian" speed="5.56" length="4.82" shape="581.32,915.00 579.89,915.43 578.99,915.23 578.62,914.39 578.76,912.91"/>
    </edge>
    <edge id=":1426014475_6" function="internal">
        <lane id=":1426014475_6_0" index="0" allow="delivery bicycle pedestrian" speed="9.73" length="5.01" shape="574.39,913.37 575.56,914.07 576.68,914.23 577.75,913.84 578.76,912.91"/>
    </edge>
    <edge id=":1426014475_7" function="internal">
        <lane id=":1426014475_7_0" index="0" disallow="tram rail_urban rail rail_electric ship" speed="13.89" length="9.49" shape="574.39,913.37 581.75,919.36"/>
    </edge>
    <edge id=":1426014475_8" function="internal">
        <lane id=":1426014475_8_0" index="0" disallow="tram rail_urban rail rail_electric ship" speed="13.89" length="2.41" shape="574.39,913.37 574.83,914.79 574.63,915.69"/>
    </edge>
    <edge id=":1426014475_11" function="internal">
        <lane id=":1426014475_11_0" index="0" speed="13.89" length="2.41" shape="574.63,915.69 573.80,916.08 572.31,915.94"/>
    </edge>
    <edge id=":1426014477_0" function="internal">
        <lane id=":1426014477_0_0" index="0" disallow="tram rail_urban rail rail_electric ship" speed="13.89" length="9.50" shape="649.02,932.53 639.83,934.96"/>
    </edge>
    <edge id=":1426014477_1" function="internal">
        <lane id=":1426014477_1_0" index="0" allow="delivery bicycle pedestrian" speed="9.73" length="5.26" shape="649.02,932.53 646.22,932.85 643.98,932.20 643.90,932.12"/>
    </edge>
    <edge id=":1426014477_2" function="internal">
        <lane id=":1426014477_2_0" index="0" disallow="tram rail_urban rail rail_electric ship" speed="13.89" length="2.41" shape="649.02,932.53 647.61,932.05 647.00,931.35"/>
    </edge>
    <edge id=":1426014477_9" function="internal">
        <lane id=":1426014477_9_0" index="0" speed="9.73" length="5.06" shape="643.90,932.12 642.30,930.57 641.18,927.97"/>
    </edge>
    <edge id=":1426014477_10" function="internal">
        <lane id=":1426014477_10_0" index="0" speed="13.89" length="2.41" shape="647.00,931.35 647.19,930.45 648.17,929.34"/>
    </edge>
    <edge id=":1426014477_3" function="internal">
        <lane id=":1426014477_3_0" index="0" disallow="tram rail_urban rail rail_electric ship" speed="9.73" length="5.03" shape="644.36,927.10 644.91,928.38 645.73,929.17 646.81,929.49 648.17,929.34"/>
    </edge>
    <edge id=":1426014477_4" function="internal">
        <lane id=":1426014477_4_0" index="0" disallow="tram rail_urban rail rail_electric ship" speed="9.73" length="10.36" shape="644.36,927.10 644.71,929.92 644.08,932.17 642.45,933.85 639.83,934.96"/>
    </edge>
    <edge id=":1426014477_5" function="internal">
        <lane id=":1426014477_5_0" index="0" allow="delivery bicycle pedestrian" speed="5.56" length="4.82" shape="644.36,927.10 643.89,928.51 643.20,929.13 642.30,928.95 641.18,927.97"/>
    </edge>
    <edge id=":1426014477_6" function="internal">
        <lane id=":1426014477_6_0" index="0" allow="delivery bicycle pedestrian" speed="9.73" length="5.01" shape="638.99,931.77 640.25,931.23 641.04,930.42 641.35,929.33 641.18,927.97"/>
    </edge>
    <edge id=":1426014477_7" function="internal">
        <lane id=":1426014477_7_0" index="0" disallow="tram rail_urban rail rail_electric ship" speed="13.89" length="9.50" shape="638.99,931.77 648.17,929.34"/>
    </edge>
    <edge id=":1426014477_8" function="internal">
        <lane id=":1426014477_8_0" index="0" disallow="tram rail_urban rail rail_electric ship" speed="13.89" length="2.41" shape="638.99,931.77 640.40,932.25 641.01,932.94"/>
    </edge>
    <edge id=":1426014477_11" function="internal">
        <lane id=":1426014477_11_0" index="0" speed="13.89" length="2.41" shape="641.01,932.94 640.82,933.84 639.83,934.96"/>
    </edge>
    <edge id=":1440808723_0" function="internal">
        <lane id=":1440808723_0_0" index="0" disallow="tram rail_urban rail rail_electric ship" speed="13.89" length="5.23" shape="1575.57,1460.15 1574.78,1458.92 1573.81,1458.31 1572.66,1458.34 1571.35,1458.99"/>
    </edge>
    <edge id=":1440808723_1" function="internal">
        <lane id=":1440808723_1_0" index="0" disallow="tram rail_urban rail rail_electric ship" speed="13.89" length="4.82" shape="1575.57,1460.15 1575.81,1458.69 1576.39,1457.97 1577.31,1458.00 1578.57,1458.78"/>
    </edge>
    <edge id=":1440808723_2" function="internal">
        <lane id=":1440808723_2_0" index="0" disallow="tram rail_urban rail rail_electric ship" speed="13.89" length="5.68" shape="1579.48,1453.75 1578.48,1454.63 1577.99,1455.76 1578.02,1457.14 1578.57,1458.78"/>
    </edge>
    <edge id=":1440808723_3" function="internal">
        <lane id=":1440808723_3_0" index="0" disallow="tram rail_urban rail rail_electric ship" speed="13.89" length="9.68" shape="1579.48,1453.75 1571.35,1458.99"/>
    </edge>
    <edge id=":1440808725_0" function="internal">
        <lane id=":1440808725_0_0" index="0" disallow="tram rail_urban rail rail_electric ship" speed="9.73" length="0.31" shape="1627.03,1554.42 1626.85,1554.16"/>
    </edge>
    <edge id=":1440808725_1" function="internal">
        <lane id=":1440808725_1_0" index="0" disallow="tram rail_urban rail rail_electric ship" speed="5.56" length="2.41" shape="1627.03,1554.42 1627.01,1552.94 1627.46,1552.13"/>
    </edge>
    <edge id=":1440808725_4" function="internal">
        <lane id=":1440808725_4_0" index="0" speed="5.56" length="2.41" shape="1627.46,1552.13 1628.37,1552.01 1629.75,1552.57"/>
    </edge>
    <edge id=":1440808725_2" function="internal">
        <lane id=":1440808725_2_0" index="0" disallow="tram rail_urban rail rail_electric ship" speed="9.73" length="0.26" shape="1629.61,1552.35 1629.75,1552.57"/>
    </edge>
    <edge id=":1440808725_3" function="internal">
        <lane id=":1440808725_3_0" index="0" disallow="tram rail_urban rail rail_electric ship" speed="13.89" length="2.41" shape="1629.61,1552.35 1629.60,1553.84 1629.14,1554.64"/>
    </edge>
    <edge id=":1440808725_5" function="internal">
        <lane id=":1440808725_5_0" index="0" speed="13.89" length="2.41" shape="1629.14,1554.64 1628.22,1554.74 1626.85,1554.16"/>
    </edge>
    <edge id=":1616746792_0" function="internal">
        <lane id=":1616746792_0_0" index="0" disallow="tram rail_urban rail rail_electric ship" speed="13.89" length="5.07" shape="1921.64,1466.22 1920.70,1465.17 1919.66,1464.66 1918.52,1464.68 1917.28,1465.23"/>
    </edge>
    <edge id=":1616746792_1" function="internal">
        <lane id=":1616746792_1_0" index="0" disallow="tram rail_urban rail rail_electric ship" speed="13.89" length="10.39" shape="1921.64,1466.22 1920.39,1463.66 1920.27,1461.32 1921.27,1459.21 1923.41,1457.32"/>
    </edge>
    <edge id=":1616746792_2" function="internal">
        <lane id=":1616746792_2_0" index="0" disallow="tram rail_urban rail rail_electric ship" speed="13.89" length="4.82" shape="1921.64,1466.22 1921.63,1464.74 1922.08,1463.93 1922.99,1463.81 1924.37,1464.37"/>
    </edge>
    <edge id=":1616746792_3" function="internal">
        <lane id=":1616746792_3_0" index="0" disallow="tram rail_urban rail rail_electric ship" speed="13.89" length="5.01" shape="1925.22,1460.07 1924.19,1460.98 1923.71,1462.00 1923.77,1463.13 1924.37,1464.37"/>
    </edge>
    <edge id=":1616746792_4" function="internal">
        <lane id=":1616746792_4_0" index="0" disallow="tram rail_urban rail rail_electric ship" speed="13.89" length="9.48" shape="1925.22,1460.07 1917.28,1465.23"/>
    </edge>
    <edge id=":1616746792_5" function="internal">
        <lane id=":1616746792_5_0" index="0" disallow="tram rail_urban rail rail_electric ship" speed="13.89" length="2.41" shape="1925.22,1460.07 1923.74,1460.06 1922.94,1459.60"/>
    </edge>
    <edge id=":1616746792_9" function="internal">
        <lane id=":1616746792_9_0" index="0" speed="13.89" length="2.41" shape="1922.94,1459.60 1922.83,1458.69 1923.41,1457.32"/>
    </edge>
    <edge id=":1616746792_6" function="internal">
        <lane id=":1616746792_6_0" index="0" disallow="tram rail_urban rail rail_electric ship" speed="13.89" length="9.43" shape="1915.50,1462.45 1923.41,1457.32"/>
    </edge>
    <edge id=":1616746792_7" function="internal">
        <lane id=":1616746792_7_0" index="0" disallow="tram rail_urban rail rail_electric ship" speed="13.89" length="5.11" shape="1915.50,1462.45 1918.03,1461.31 1920.36,1461.24"/>
    </edge>
    <edge id=":1616746792_8" function="internal">
        <lane id=":1616746792_8_0" index="0" disallow="tram rail_urban rail rail_electric ship" speed="13.89" length="2.41" shape="1915.50,1462.45 1916.99,1462.48 1917.78,1462.96"/>
    </edge>
    <edge id=":1616746792_10" function="internal">
        <lane id=":1616746792_10_0" index="0" speed="13.89" length="5.18" shape="1920.36,1461.24 1922.47,1462.27 1924.37,1464.37"/>
    </edge>
    <edge id=":1616746792_11" function="internal">
        <lane id=":1616746792_11_0" index="0" speed="13.89" length="2.41" shape="1917.78,1462.96 1917.88,1463.87 1917.28,1465.23"/>
    </edge>
    <edge id=":1616747038_0" function="internal">
        <lane id=":1616747038_0_0" index="0" disallow="tram rail_urban rail rail_electric ship" speed="13.89" length="4.28" shape="1865.04,1504.38 1864.19,1503.29 1863.33,1502.68 1862.46,1502.56 1861.56,1502.93"/>
    </edge>
    <edge id=":1616747038_1" function="internal">
        <lane id=":1616747038_1_0" index="0" disallow="tram rail_urban rail rail_electric ship" speed="13.89" length="10.32" shape="1865.04,1504.38 1863.86,1501.77 1863.75,1499.41 1864.71,1497.29 1866.75,1495.42"/>
    </edge>
    <edge id=":1616747038_2" function="internal">
        <lane id=":1616747038_2_0" index="0" disallow="tram rail_urban rail rail_electric ship" speed="13.89" length="4.82" shape="1865.04,1504.38 1865.08,1502.90 1865.56,1502.11 1866.48,1502.02 1867.83,1502.63"/>
    </edge>
    <edge id=":1616747038_3" function="internal">
        <lane id=":1616747038_3_0" index="0" disallow="tram rail_urban rail rail_electric ship" speed="13.89" length="5.14" shape="1868.61,1498.15 1867.62,1499.07 1867.16,1500.12 1867.23,1501.31 1867.83,1502.63"/>
    </edge>
    <edge id=":1616747038_4" function="internal">
        <lane id=":1616747038_4_0" index="0" disallow="tram rail_urban rail rail_electric ship" speed="13.89" length="8.51" shape="1868.61,1498.15 1861.56,1502.93"/>
    </edge>
    <edge id=":1616747038_5" function="internal">
        <lane id=":1616747038_5_0" index="0" disallow="tram rail_urban rail rail_electric ship" speed="13.89" length="2.41" shape="1868.61,1498.15 1867.12,1498.16 1866.31,1497.71"/>
    </edge>
    <edge id=":1616747038_9" function="internal">
        <lane id=":1616747038_9_0" index="0" speed="13.89" length="2.41" shape="1866.31,1497.71 1866.19,1496.80 1866.75,1495.42"/>
    </edge>
    <edge id=":1616747038_6" function="internal">
        <lane id=":1616747038_6_0" index="0" disallow="tram rail_urban rail rail_electric ship" speed="13.89" length="8.50" shape="1859.72,1500.19 1866.75,1495.42"/>
    </edge>
    <edge id=":1616747038_7" function="internal">
        <lane id=":1616747038_7_0" index="0" disallow="tram rail_urban rail rail_electric ship" speed="13.89" length="4.56" shape="1859.72,1500.19 1861.96,1499.17 1864.06,1499.24"/>
    </edge>
    <edge id=":1616747038_8" function="internal">
        <lane id=":1616747038_8_0" index="0" disallow="tram rail_urban rail rail_electric ship" speed="13.89" length="2.41" shape="1859.72,1500.19 1861.20,1500.18 1862.01,1500.64"/>
    </edge>
    <edge id=":1616747038_10" function="internal">
        <lane id=":1616747038_10_0" index="0" speed="13.89" length="5.15" shape="1864.06,1499.24 1866.02,1500.39 1867.83,1502.63"/>
    </edge>
    <edge id=":1616747038_11" function="internal">
        <lane id=":1616747038_11_0" index="0" speed="13.89" length="2.41" shape="1862.01,1500.64 1862.13,1501.55 1861.56,1502.93"/>
    </edge>
    <edge id=":1616747077_0" function="internal">
        <lane id=":1616747077_0_0" index="0" disallow="tram rail_urban rail rail_electric ship" speed="13.89" length="9.50" shape="1958.59,1509.34 1950.71,1514.64"/>
    </edge>
    <edge id=":1616747077_1" function="internal">
        <lane id=":1616747077_1_0" index="0" disallow="tram rail_urban rail rail_electric ship" speed="13.89" length="5.27" shape="1958.59,1509.34 1956.05,1510.56 1953.72,1510.68 1953.62,1510.63"/>
    </edge>
    <edge id=":1616747077_2" function="internal">