<?xml version="1.0" encoding="UTF-8"?>

<!-- generated on Thu Dec  7 22:35:06 2017 by SUMO duarouter Version 0.31.0
<?xml version="1.0" encoding="UTF-8"?>

<configuration xmlns:xsi="http://www.w3.org/2001/XMLSchema-instance" xsi:noNamespaceSchemaLocation="http://sumo.dlr.de/xsd/duarouterConfiguration.xsd">

    <input>
        <net-file value="galciana.net.xml"/>
        <route-files value="trips.trips.xml"/>
    </input>

    <output>
        <output-file value="galciana1.rou.xml"/>
    </output>

    <processing>
        <ignore-errors value="true"/>
    </processing>

    <time>
        <begin value="0"/>
        <end value="100.0"/>
    </time>

    <report>
        <no-warnings value="true"/>
        <no-step-log value="true"/>
    </report>

</configuration>
-->

<routes xmlns:xsi="http://www.w3.org/2001/XMLSchema-instance" xsi:noNamespaceSchemaLocation="http://sumo.dlr.de/xsd/routes_file.xsd">
    <vehicle id="1" depart="0.10">
        <route edges="161243316 161243302 -161243302 233272583 161243295#3 161243294#0 161243294#1 -186792062#1 -186792062#0 -280699992 280699993#0 280699993#1 232473993#2 232473993#3 232473993#4 232473993#5 232473993#6 460985046 -161243319 39407729#3 39407729#4 39407729#0 -39407730#3 -39407730#2 206631340#0 206631340#1"/>
    </vehicle>
    <vehicle id="3" depart="0.30">
        <route edges="-39407730#1 -39407730#0 171796165 159687809#0 159687809#1 159687809#2 159687809#3 159687809#4 159687809#5 159687809#6 159687762#4 159687762#0 242852991 242852990 240357123 240357119#6 240357119#7 240357119#8 240357119#0 240357120 240357124#0 240357124#1 240357124#2 240357124#3 171990366#0 159512766#0 159512766#1 161243289#2 -161243311"/>
    </vehicle>
    <vehicle id="4" depart="0.40">
        <route edges="-186792071#0 186792071#0 186792071#1 186792071#2 159687764#1 159687762#0 159687762#1 159687762#2 159687762#3 -159687809#6 -159687809#5 -159687809#4 -159687809#3 -159687809#2 -159687809#1 -159687809#0 -171796165 39407730#0 39407730#1 39407730#2 39407730#3 39407729#1 39407729#2 161243319 229759349 186792064 186792065 287687215 232473993#0 243522327#0 243522327#1 280699992 186792062#0 186792062#1 -161243294#1 -161243294#0"/>
    </vehicle>
    <vehicle id="5" depart="0.50">
        <route edges="-171990357 171990357"/>
    </vehicle>
    <vehicle id="6" depart="0.60">
        <route edges="460985046 -161243319 161243319 229759349 186792064 186792065 287687215 232473993#0 243522327#0 243522327#1 280699992 186792062#0 186792062#1 -161243294#1 -161243294#0 161243295#4 161243295#0 161243324#0 161243313 192420388 186792072"/>
    </vehicle>
    <vehicle id="7" depart="0.70">
        <route edges="-38963475#0 38963475#0 38963475#1 40497630#1 39407729#2 39407729#3 39407729#4 39407729#0 -39407730#3 -39407730#2 -39407730#1 -39407730#0 171796165 159687809#0 159687809#1 159687809#2 159687809#3 159687809#4 159687809#5 159687809#6 159687762#4 159687762#0 242852991 242852990 240357123 240357119#6 240357119#7 240357119#8 240357119#0 240357120 240357124#0 240357124#1 -159687765#3 -159687765#2"/>
    </vehicle>
    <vehicle id="8" depart="0.80">
        <route edges="38963472#2 39407878#0 39407878#1 159687809#5 159687809#6 159687762#4 -159687764#1 -186792071#2 -186792071#1 -186792071#0 -159687799 -186792068"/>
    </vehicle>
    <vehicle id="9" depart="0.90">
        <route edges="287687215 232473993#0 243522327#0 243522327#1 280699993#0 280699993#1 232473993#2 232473993#3 232473993#4 232473993#5 232473993#6 460985046 -161243319 39407729#3 39407729#4 39407729#0 -39407730#3 -39407730#2 -39407730#1 -39407730#0 171796165 159687809#0 159687809#1 159687809#2 159687809#3 159687809#4 159687809#5 159687809#6 159687762#4 -159687764#1 -159687764#0 -159687804#3 -159687804#2 -159687804#1 -159687804#0 159687780"/>
    </vehicle>
    <vehicle id="11" depart="1.10">
        <route edges="180800198 232473995#0 249507286 -42734565 -181265852"/>
    </vehicle>
    <vehicle id="12" depart="1.20">
        <route edges="186792072 183454198#3 183454198#4 183454198#0 40152333#0 40152333#1 183454177 183454176#0 183454176#1 38963456 38963455#0 38963455#1 38963455#2 38963455#3 38963455#4 171990366#2 -240357124#3 -240357124#2 -240357124#1 -240357124#0 240357122 240357119#2 240357119#3 240357119#4 240357121 -242852990 159687824 159687762#2 159687762#3 -159687809#6 38963472#0 38963472#1 39330703"/>
    </vehicle>
    <vehicle id="13" depart="1.30">
        <route edges="-40497633#4 -40497633#3 -40497633#2 -148590685 -186792046#2 -186792046#1 -186792046#0 40497635#0 40497635#1 186792049#1 186792049#2 186792049#3 39330744 39330745 186792048 159687762#3 159687762#4 -159687764#1 -159687764#0 -159687804#3 -159687804#2 159687765#0 159687765#1 -159687814#2 -39330715"/>
    </vehicle>
    <vehicle id="14" depart="1.40">
        <route edges="186792043#2 39407740 39407746#3 39407746#4 39407746#5 39407735 39407745 40152336#0 40152336#1 40152336#2 185996692 39407729#4 39407729#0 -39407730#3 -39407730#2 -39407730#1 -39407730#0 171796165 159687809#0 159687809#1 159687809#2 159687809#3 159687809#4 159687809#5 159687809#6 159687762#4 159687762#0 242852991 242852990 240357123 240357119#6 240357119#7 240357119#8 240357119#0 240357120 240357124#0 240357124#1 240357124#2 240357124#3 171990366#0 159512766#0 159512766#1"/>
    </vehicle>
    <vehicle id="15" depart="1.50">
        <route edges="161243311 161243289#3 161243289#4 161243289#0 -161243318#2"/>
    </vehicle>
    <vehicle id="16" depart="1.60">
        <route edges="-186792046#3 148590685 40497633#2 40497633#3 40497633#4 40497631 39330688#2 39330688#3 -186792062#1 -186792062#0 -280699992 280699993#0 280699993#1 232473993#2 232473993#3 232473993#4 232473993#5 232473993#6 460985046"/>
    </vehicle>
    <vehicle id="17" depart="1.70">
        <route edges="186792058 281537190 186792059#0 186792086 -323229563 323229562 254307451#6 254307451#7 254307451#0 280964784 180800198 232473995#0 232473995#1 232473995#2 232473995#3 232473995#4 232473993#4 232473993#5 232473993#6 232473993#7 232473993#8 232473993#0 243522327#0 243522327#1 280699992 161243321 -39330688#2 -40497631 -40497633#4 -40497633#3 -40497633#2 -148590685 -186792046#2 -186792046#1 -186792046#0 40497635#0 171990362"/>
    </vehicle>
    <vehicle id="18" depart="1.80">
        <route edges="171795975 321663251 40232640#0 40232640#1 319129124#2 33188673 181265863#0 280964783#0 280964783#1 280964783#2 254307451#4 254307451#5 254307451#6 254307451#7 254307451#0 280964784 180800198 232473995#0 232473995#1 232473995#2 232473995#3 232473995#4 232473993#4 232473993#5 232473993#6 460985046 -161243319 39407729#3 39407729#4 39407729#0 -39407730#3 -39407730#2 -39407730#1 -39407730#0 171796165 159687809#0 159687809#1 159687809#2 159687809#3 159687809#4 159687809#5 38963472#0"/>
    </vehicle>
    <vehicle id="19" depart="1.90">
        <route edges="44638788 -44638788 -241418961#0 -38963450 38963457#0 -38963457#0"/>
    </vehicle>
    <vehicle id="20" depart="2.00">
        <route edges="181265852 42734565 249507285 232473995#2 232473995#3 232473995#4 232473993#4 232473993#5 232473993#6 460985046 -161243319 39407729#3 39407729#4 39407729#0 -39407730#3 -39407730#2 -39407730#1 -39407730#0 171796165 159687809#0 159687809#1 159687809#2 159687809#3 159687809#4 159687809#5 159687809#6 159687762#4 -159687764#1 -159687764#0 -159687804#3 -159687804#2 -159687804#1 159687793#0"/>
    </vehicle>
    <vehicle id="21" depart="2.10">
        <route edges="40152336#0 40152336#1 40152336#2 185996692 39407729#4 39407729#0 39407729#1 39407729#2 161243319 229759349 186792064 186792065 287687215 232473993#0 243522327#0 243522327#1 280699993#0 280699993#1 232473993#2 232473993#3 232473993#4 232473993#5 232473993#6 460985046"/>
    </vehicle>
    <vehicle id="22" depart="2.20">
        <route edges="-161243312"/>
    </vehicle>
    <vehicle id="25" depart="2.50">
        <route edges="-42734568 42734568 42734565 249507285 232473995#2 232473995#3 232473995#4 232473993#4 232473993#5 232473993#6 460985046 -161243319 39407729#3 39407729#4 39407729#0 -39407730#3 -39407730#2 -39407730#1 -39407730#0 171796165 159687809#0 159687809#1 159687809#2 159687809#3 159687809#4 159687809#5 159687809#6 159687762#4 -159687764#1 -159687764#0 -159687804#3 -159687804#2 159687765#0 159687765#1 -159687814#2 -39330715 39330715"/>
    </vehicle>
    <vehicle id="26" depart="2.60">
        <route edges="39330780 186792075#0 186792075#1 159512779#0 288208353 -161243303#3 -161243303#2 -161243303#1 -161243303#0 161243289#4 161243289#0 161243289#1 -159512766#1 -159512766#0 171990366#1 -38963455#4 -38963455#3 -38963455#2 -38963455#1 -38963455#0 -38963456 -183454176#1 -171990359 161243310 40497636#0 40497636#1 40497628 40497638 39330688#0 39330688#1 39330688#2 39330688#3 -186792062#1 -186792062#0 -280699992 280699993#0 280699993#1 232473993#2 232473996#0 232473996#1 232473996#2 -180800198 249507282#0 249507282#1 254307451#2 254307451#3 254307451#4 254307451#5 254307451#6 280964779#0 280964779#1 181265861"/>
    </vehicle>
    <vehicle id="27" depart="2.70">
        <route edges="33188673 181265863#0 280964783#0 280964783#1 280964783#2 254307451#4 254307451#5 254307451#6 254307451#7 254307451#0 280964784 180800198 232473995#0 232473995#1 232473995#2 232473995#3 232473995#4 232473993#4 232473993#5 232473993#6 460985046 -161243319 39407729#3 39407729#4 39407729#0 -39407730#3 -39407730#2 -39407730#1 -39407730#0 171796165 159687809#0 159687809#1 159687809#2 159687809#3 159687809#4 159687809#5 159687809#6 159687762#4 159687762#0 242852991 242852990 240357123 240357119#6 240357119#7 240357119#8 240357119#0 240357120 240357124#0 240357124#1 240357124#2 240357124#3 171990366#0 171990366#1 -38963455#4 171990360#0 171990360#1 -161243318#1 -161243318#0 161243318#0"/>
    </vehicle>
    <vehicle id="29" depart="2.90">
        <route edges="186792072 183454198#3 -161243324#1 -161243324#0 161243295#1 161243295#2 161243295#3 161243294#0 161243294#1 -186792062#1 -186792062#0 -280699992 280699993#0 280699993#1 232473993#2 232473996#0 232473996#1 232473996#2 -180800198 180800198 232473995#0 249507286 -42734565 -181265852 181265852"/>
    </vehicle>
    <vehicle id="30" depart="3.00">
        <route edges="183454198#0 40152333#0 -171990367 171990348"/>
    </vehicle>
    <vehicle id="31" depart="3.10">
        <route edges="-159687814#2 159687814#2 159687775#0 159687775#1 159687775#2 240357118 240357119#8 240357119#0 240357120 240357124#0 240357124#1 240357124#2 240357124#3 171990366#0 171990366#1 -38963455#4 -38963455#3 -38963455#2 -38963455#1 -38963455#0 -38963456 -183454176#1 -171990359 161243310 40497636#0 40497636#1 39330697 186792046#0 186792046#1 186792046#2 148590685"/>
    </vehicle>
    <vehicle id="32" depart="3.20">
        <route edges="180800198 232473995#0 232473995#1 232473995#2 232473995#3 232473995#4 232473993#4 232473993#5 232473993#6 460985046 -161243319 39407729#3 -185996692 -40152336#2"/>
    </vehicle>
    <vehicle id="33" depart="3.30">
        <route edges="-171990357 159512766#1 161243289#2 161243289#3 161243303#0 161243303#1 161243303#2 161243303#3 288208346 159512779#2 288208347"/>
    </vehicle>
    <vehicle id="35" depart="3.50">
        <route edges="171990361#0 171990352"/>
    </vehicle>
    <vehicle id="36" depart="3.60">
        <route edges="-40152333#0 183454198#1 183454198#2 183454198#3 -161243324#1 -161243324#0 161243295#1 161243295#2 161243295#3 161243294#0 161243294#1 -186792062#1 -186792062#0 -280699992 280699993#0 280699993#1 232473993#2 232473996#0 232473996#1 232473996#2 -180800198 249507282#0 249507282#1 254307451#2 254307451#3 254307451#4 186792081 323229563 281537192 186792059#2 186792056 -186792055 -311539529 311539529"/>
    </vehicle>
    <vehicle id="37" depart="3.70">
        <route edges="44638790 -241418961#1 -241418961#0 -38963450 38963457#0 -44638751"/>
    </vehicle>
    <vehicle id="38" depart="3.80">
        <route edges="40497635#1 186792049#1 186792049#2 186792049#3 39330744 39330745 186792048 159687762#3 159687762#4 159687762#0 242852991 242852990 240357123 240357119#6 240357119#7 240357119#8 240357119#0 240357119#1 240357119#2 161243307 240357116#0 240357116#1 240357116#2 -161243290#1 -161243290#0"/>
    </vehicle>
    <vehicle id="39" depart="3.90">
        <route edges="31776935 -161243303#2 -161243303#1 -161243303#0 161243289#4 161243289#0 161243289#1 -159512766#1 -159512766#0 171990366#1 171990366#2 -240357124#3 -240357124#2 -240357124#1 -240357124#0 240357122 240357119#2 240357119#3 240357119#4 240357121 -242852990 159687824 159687762#2 159687762#3 -159687809#6 -159687809#5 -159687809#4 -159687809#3 -159687809#2 -159687809#1 -159687809#0 -171796165 39407730#0 39407730#1 39407730#2 39407730#3 39407729#1 39407729#2 39407729#3 -185996692 -40152336#2 -40152336#1 -40152336#0 -39407745 39407734 39407746#1 39407746#2 39407746#3 301895805#0 408832709"/>
    </vehicle>
    <vehicle id="41" depart="4.10">
        <route edges="186792069 186792068 159687799 186792071#0 186792071#1 186792071#2 -159687764#0 -159687804#3 -159687804#2 159687765#0 159687765#1 -159687814#2 -39330715"/>
    </vehicle>
    <vehicle id="42" depart="4.20">
        <route edges="161243315#1 40497638 39330688#0 39330688#1 39330688#2 39330688#3 -161243294#1 -161243294#0 161243295#4 161243295#0 161243324#0 161243313 192420388 -186792060 186792060"/>
    </vehicle>
    <vehicle id="43" depart="4.30">
        <route edges="40497628 40497638 39330688#0 39330688#1 39330688#2 39330688#3 -161243294#1 -161243294#0 161243295#4 161243295#0 161243324#0 161243313 192420388"/>
    </vehicle>
    <vehicle id="44" depart="4.40">
        <route edges="42734565 249507285 232473995#2 232473995#3 232473995#4 232473993#4 232473993#5 232473993#6 232473993#7 232473993#8 232473993#0 243522327#0 243522327#1 280699993#0 280699993#1 232473993#2 232473996#0 232473996#1 232473996#2 -180800198 249507282#0 249507282#1 254307451#2 254307451#3 254307451#4 254307451#5 254307451#6 280964779#0 280964779#1 181265861"/>
    </vehicle>
    <vehicle id="45" depart="4.50">
        <route edges="229759349 -186792080 -39330688#0 40497633#0 -148590684 -186792046#0 40497635#0 40497635#1 186792049#1 186792049#2 186792049#3 39330744 39330745 186792048 159687762#3 159687762#4 159687762#0 242852991 242852990 240357123 240357119#6 240357119#7 240357119#8 240357119#0 240357120 240357124#0 240357124#1 240357124#2 240357124#3 171990366#0 171990366#1 -38963455#4 -38963455#3 -38963455#2 301984996"/>
    </vehicle>
    <vehicle id="46" depart="4.60">
        <route edges="159687796#1 159687796#2 159687804#0 159687804#1 159687804#2 159687804#3 159687764#0 159687764#1 159687762#0 159687762#1 159687762#2 159687762#3 -159687809#6 -159687809#5 -159687809#4 -159687809#3 -159687809#2 -159687809#1 -159687809#0 -171796165 39407730#0 39407730#1 39407730#2 39407730#3 39407729#1 39407729#2 161243319 229759349 186792064 186792065 287687215 232473993#0 243522327#0 243522327#1 280699992 186792062#0 186792062#1 -161243294#1 -161243294#0 161243295#4 161243295#0 161243295#1 161243316 161243302"/>
    </vehicle>
    <vehicle id="47" depart="4.70">
        <route edges="-161243303#3 -161243303#2 161243303#2"/>
    </vehicle>
    <vehicle id="48" depart="4.80">
        <route edges="-311539528 39313611#3 311539529 186792055 281537188 186792059#4 186792059#0 186792086 -323229563 323229562 254307451#6 254307451#7 254307451#0 280964784 180800198 232473995#0 232473995#1 232473995#2 232473995#3 232473995#4 232473993#4 232473993#5 232473993#6 460985046 -161243319 39407729#3 39407729#4 39407729#0 -39407730#3 -39407730#2 -39407730#1 -39407730#0 171796165 159687809#0 159687809#1 159687809#2 159687809#3 159687809#4 159687809#5 159687809#6 159687762#4 159687762#0 242852991 242852990 240357123 240357119#6 240357119#7 240357119#8 240357119#0 240357120 240357124#0 240357124#1 240357124#2 240357124#3 171990366#0 159512766#0 159512766#1 161243289#2 161243289#3 161243289#4 161243289#0 -161243318#2"/>
    </vehicle>
    <vehicle id="49" depart="4.90">
        <route edges="323229563 -323229563 323229562 254307451#6 254307451#7 254307451#0 280964784 180800198 232473995#0 232473995#1 232473995#2 232473995#3 232473995#4 232473993#4 232473993#5 232473993#6 460985046 -161243319 39407729#3 39407729#4 39407729#0 -39407730#3 -39407730#2 -39407730#1 -39407730#0 171796165 159687809#0 159687809#1 159687809#2 159687809#3 159687809#4 159687809#5 159687809#6 159687762#4 159687762#0 242852991 242852990 240357123 240357119#6 240357119#7 240357119#8 240357119#0 240357119#1 240357119#2 161243307 240357116#0 240357116#1 240357116#2 -161243290#1 -161243290#0"/>
    </vehicle>
    <vehicle id="50" depart="5.00">
        <route edges="186792075#0 186792075#1 159512779#0 288208353 -161243303#3 -161243303#2 -161243303#1 -161243303#0 161243289#4 161243289#0 161243289#1 -159512766#1 -159512766#0 171990366#1 171990366#2 -240357124#3 -240357124#2 -240357124#1 -240357124#0 240357122 240357119#2 240357119#3 240357119#4 240357119#5 240357119#6 240357117 -159687775#2 -159687775#1 -159687775#0 159687765#2"/>
    </vehicle>
    <vehicle id="52" depart="5.20">
        <route edges="171990360#1 161243318#2 161243289#1 -159512766#1 -159512766#0 171990366#1 -38963455#4 -38963455#3 -38963455#2 -38963455#1 -38963455#0 -38963456 -183454176#1 -171990359 161243310 40497636#0 40497636#1 40497628 40497638 40497633#0 40497633#1 40497633#2 40497633#3"/>
    </vehicle>
    <vehicle id="54" depart="5.40">
        <route edges="-161243315#1 161243315#1 40497638 40497633#0 40497633#1 -40497633#1"/>
    </vehicle>
    <vehicle id="55" depart="5.50">
        <route edges="-186792043#2 186792043#2 39407740 39407746#3 39407746#4 39407746#5 39407735 39407745 40152336#0 40152336#1 40152336#2 185996692 39407729#4 39407729#0 39407729#1 -40497630#1 -40497630#0 40497638 39330688#0"/>
    </vehicle>
    <vehicle id="56" depart="5.60">
        <route edges="38963457#1 -38963457#1 -38963457#0 38963450 241418961#0 44638788 -44638788"/>
    </vehicle>
    <vehicle id="57" depart="5.70">
        <route edges="161243318#1 161243318#2 161243289#1 -159512766#1 -159512766#0 171990366#1 -38963455#4 -38963455#3 -38963455#2 -38963455#1 -38963455#0 -38963456 -183454176#1 -171990359 161243310 40497636#0 40497636#1 40497628 40497638 39330688#0 39330688#1 39330688#2 39330688#3 -186792062#1 -186792062#0 -280699992 280699993#0 280699993#1 232473993#2 232473996#0 232473996#1 232473996#2 -180800198 249507282#0 249507282#1 254307451#2 254307451#3 254307451#4 186792081 323229563 281537192 186792059#2 186792056 -186792055 -311539529"/>
    </vehicle>
    <vehicle id="59" depart="5.90">
        <route edges="159512766#0 -159512766#0 171990366#1 171990366#2 -240357124#3 -240357124#2 -240357124#1 -240357124#0 240357122 240357119#2 240357119#3 240357119#4 240357121 -242852990 159687824 159687762#2 159687762#3 -159687809#6 -159687809#5 -159687809#4 -159687809#3 -159687809#2 -159687809#1 -159687809#0 -171796165 39407730#0 39407730#1 39407730#2 39407730#3 39407729#1 39407729#2 161243319 229759349 -186792080"/>
    </vehicle>
    <vehicle id="61" depart="6.10">
        <route edges="40152336#2 185996692 39407729#4 39407729#0 -39407730#3 -39407730#2 -39407730#1 -39407730#0 171796165 159687809#0 159687809#1 159687809#2 159687809#3 159687809#4 159687809#5 159687809#6 159687762#4 -159687764#1 -159687764#0 -159687804#3 -159687804#2 159687765#0 159687765#1 159687765#2"/>
    </vehicle>
    <vehicle id="63" depart="6.30">
        <route edges="-159687764#0 159687764#0 159687764#1 159687762#0 159687762#1 159687762#2 159687762#3 -159687809#6 -159687809#5 -159687809#4 -159687809#3 -159687809#2 -159687809#1 -159687809#0 -171796165 39407730#0 39407730#1 39407730#2 39407730#3 39407729#1 39407729#2 39407729#3 -185996692 -40152336#2 -40152336#1 -40152336#0 -39407745 39407745"/>
    </vehicle>
    <vehicle id="64" depart="6.40">
        <route edges="159687809#2 159687809#3 159687809#4 159687809#5 159687809#6 159687762#4 159687762#0 242852991 242852990 240357123 240357119#6 240357119#7 240357119#8 240357119#0 240357120 240357124#0 240357124#1 240357124#2 240357124#3 171990366#0 159512766#0 159512766#1 161243289#2 161243289#3 161243303#0 161243303#1 161243303#2 161243303#3 288208346 159512779#2 288208347"/>
    </vehicle>
    <vehicle id="65" depart="6.50">
        <route edges="159687775#2 240357118 240357119#8 240357119#0 240357119#1 240357119#2 240357119#3 240357119#4 240357121 -242852990 159687824 159687762#2 159687762#3 -159687809#6 -159687809#5 -159687809#4 -159687809#3 -159687809#2 -159687809#1 -159687809#0 -171796165 39407730#0 39407730#1 39407730#2 39407730#3 39407729#1 39407729#2 161243319 229759349 186792064 186792065 287687215 232473993#0 243522327#0 243522327#1 280699992 186792062#0 186792062#1 -161243294#1 -161243294#0 161243294#0"/>
    </vehicle>
    <vehicle id="66" depart="6.60">
        <route edges="171795975 321663251 40232640#0 40232640#1 319129124#2 33188673 181265863#0 280964783#0 280964783#1 280964783#2 254307451#4 254307451#5 254307451#6 254307451#7 254307451#0 280964784 180800198 232473995#0 249507286 -42734565 -42734568 181265822 -186792043#1 -186792043#0"/>
    </vehicle>
    <vehicle id="68" depart="6.80">
        <route edges="-186792060 186792060 186792072 183454198#3 183454198#4 183454198#0 40152333#0 40152333#1 183454177 183454176#0 183454176#1 38963456 38963455#0 38963455#1 38963455#2 38963455#3 38963455#4 171990366#2 -240357124#3 -240357124#2 -159687765#3 -159687765#2"/>
    </vehicle>
    <vehicle id="69" depart="6.90">
        <route edges="-161243324#0 161243324#0 161243324#1 183454198#4 183454198#0 40152333#0 40152333#1 183454177 183454176#0 183454176#1 38963456 38963455#0 38963455#1 38963455#2 38963455#3 171990360#0"/>
    </vehicle>
    <vehicle id="70" depart="7.00">
        <route edges="-171990357 -159512766#0 171990366#1 171990366#2 -240357124#3 -240357124#2 -240357124#1 -240357124#0 240357122 240357119#2 240357119#3 240357119#4 240357119#5 240357119#6 240357117 -159687775#2 -159687775#1 -159687775#0 -159687765#1 159687810#0 159687810#1 -159687814#0"/>
    </vehicle>
    <vehicle id="71" depart="7.10">
        <route edges="186792071#0 186792071#1 186792071#2 159687764#1 159687762#0 242852991 242852990 240357123 240357119#6 240357119#7 240357119#8 240357119#0 240357120 240357124#0 240357124#1 240357124#2 240357124#3 171990366#0 159512766#0 159512766#1 161243289#2 -161243311"/>
    </vehicle>
    <vehicle id="72" depart="7.20">
        <route edges="159687796#0 159687796#1 159687796#2 159687804#0 159687804#1 159687804#2 159687804#3 159687764#0 159687764#1 159687762#0 159687762#1 159687762#2 159687762#3 -159687809#6 -159687809#5 -159687809#4 -159687809#3 -159687809#2 -159687809#1 -159687809#0 -171796165 39407730#0 39407730#1 39407730#2 39407730#3 39407729#1 39407729#2 161243319 229759349 186792064 186792065 287687215 232473993#0 243522327#0 243522327#1 280699993#0 280699993#1 232473993#2 232473996#0 232473996#1 232473996#2 -180800198 249507282#0 249507282#1 254307451#2 254307451#3 254307451#4 186792081 323229563 281537192 186792059#2 186792056 -186792055 -311539529 39313611#0 39313611#1 311539532#0 311539532#1"/>
    </vehicle>
    <vehicle id="73" depart="7.30">
        <route edges="-171990357 -159512766#0 171990366#1 -38963455#4 -38963455#3 -38963455#2 -38963455#1 -38963455#0 -38963456 -183454176#1 -183454176#0 -183454177 -40152333#1 40152333#1"/>
    </vehicle>
    <vehicle id="74" depart="7.40">
        <route edges="-159687814#2 159687814#2 159687775#0 159687775#1 159687775#2 240357118 240357119#8 240357119#0 240357119#1 240357119#2 240357119#3 240357119#4 240357121 -242852990 159687824 159687762#2 159687762#3 -159687809#6 38963472#0 38963472#1 38963472#2 39330705#0"/>
    </vehicle>
    <vehicle id="75" depart="7.50">
        <route edges="-311539529 311539529 186792055 281537188 186792059#4 186792059#0 186792086 -323229563 323229562 254307451#6 254307451#7 254307451#0 254307451#1 254307451#2 280964777 181265862#0 181265825 -161243302 233272583 161243295#3 161243295#4 161243295#0 161243324#0 161243324#1 183454198#4 183454198#0 40152333#0"/>
    </vehicle>
    <vehicle id="76" depart="7.60">
        <route edges="159687804#0 159687804#1 159687804#2 159687804#3 159687764#0 159687764#1 159687762#0 159687762#1 159687762#2 159687762#3 -159687809#6 -159687809#5 -159687809#4 -159687809#3 -159687809#2 -159687809#1 -159687809#0 -171796165 39407730#0 39407730#1 39407730#2 39407730#3 39407729#1 39407729#2 161243319 229759349 186792064 186792065 287687215 232473993#0 243522327#0 243522327#1 280699993#0 280699993#1 232473993#2 232473996#0 232473996#1 232473996#2 -180800198 249507282#0 249507282#1 254307451#2 280964777"/>
    </vehicle>
    <vehicle id="77" depart="7.70">
        <route edges="186792043#2 39407740 39407746#3 39407746#4 39407746#5 39407735 39407745 40152336#0 40152336#1 40152336#2 185996692 39407729#4 39407729#0 39407729#1 39407729#2 161243319 229759349 186792064"/>
    </vehicle>
    <vehicle id="78" depart="7.80">
        <route edges="-39407730#1 39407730#1 39407730#2 39407730#3 39407729#1 -40497630#1 -40497630#0 40497638 40497633#0 40497633#1 40497633#2"/>
    </vehicle>
    <vehicle id="79" depart="7.90">
        <route edges="241418961#0 -241418961#0 -38963450 38963457#0"/>
    </vehicle>
    <vehicle id="85" depart="8.50">
        <route edges="183454177 183454176#0 -171990359 40437025 40437024 171990367"/>
    </vehicle>
    <vehicle id="86" depart="8.60">
        <route edges="232473992 42734568 42734565 249507285 232473995#2 232473995#3 232473995#4 232473993#4 232473993#5 232473993#6 232473993#7 232473993#8 232473993#0 243522327#0 243522327#1 280699993#0 280699993#1 232473993#2 232473996#0 232473996#1 232473996#2 -180800198 249507282#0 249507282#1 254307451#2 254307451#3 254307451#4"/>
    </vehicle>
    <vehicle id="87" depart="8.70">
        <route edges="-40152336#1 40152336#1 40152336#2 185996692 39407729#4 39407729#0 -39407730#3 -39407730#2 -39407730#1 -39407730#0 171796165 159687809#0 159687809#1 159687809#2 159687809#3 159687809#4 159687809#5 159687809#6 159687762#4 159687762#0 242852991 242852990 240357123 240357119#6 240357119#7 240357119#8 240357119#0 240357120 240357124#0 240357124#1 240357124#2 240357124#3 171990366#0 171990366#1 -38963455#4 -38963455#3 -38963455#2"/>
    </vehicle>
    <vehicle id="89" depart="8.90">
        <route edges="186792049#2 -130903688 -130903689 161243315#0 161243315#1 40497638 -40497638"/>
    </vehicle>
    <vehicle id="93" depart="9.30">
        <route edges="159687812 159687796#1 159687796#2 159687804#0 159687804#1 159687804#2 159687804#3 159687764#0 159687764#1 159687762#0 242852991 242852990 240357123 240357119#6 240357119#7 240357119#8 240357119#0 240357120 240357124#0 240357124#1 240357124#2 240357124#3"/>
    </vehicle>
    <vehicle id="94" depart="9.40">
        <route edges="42734568 42734565 249507285 232473995#2 232473995#3 232473995#4 232473993#4 232473993#5 232473993#6 232473993#7 232473993#8 232473993#0 243522327#0 243522327#1 280699992 161243321 -39330688#2 -40497631 -40497633#4 -40497633#3 -161243300#2 -161243300#1 161243314#1 161243282#1"/>
    </vehicle>
    <vehicle id="95" depart="9.50">
        <route edges="161243314#1 161243282#1 186792046#2 148590685 40497633#2 40497633#3 40497633#4 40497631 39330688#2 39330688#3 -161243294#1 -161243294#0 161243295#4 161243295#0 161243324#0 161243324#1 183454198#4 183454198#0 183454198#1 8024979 183454182"/>
    </vehicle>
    <vehicle id="96" depart="9.60">
        <route edges="40152336#2 185996692 39407729#4 39407729#0 -39407730#3 -39407730#2 -39407730#1 -39407730#0 171796165 159687809#0 159687809#1 159687809#2 159687809#3 159687809#4 159687809#5 159687809#6 159687762#4 159687762#0 242852991 242852990 240357123 240357119#6 240357119#7 240357119#8 240357119#0 240357120 240357124#0 240357124#1 240357124#2 240357124#3 171990366#0 159512766#0 159512766#1 161243289#2 161243289#3 161243289#4 161243289#0 -161243318#2"/>
    </vehicle>
    <vehicle id="97" depart="9.70">
        <route edges="159522264#0 159522264#1 159522264#2 238802378#0 238802378#1 254307451#0 280964784 180800198 232473995#0 232473995#1 232473995#2 232473995#3 232473995#4 232473993#4 232473993#5 232473993#6 232473993#7 232473993#8 232473993#0 243522327#0 243522327#1 280699992 161243321 -39330688#2 -40497631 -40497633#4 -40497633#3 -161243300#2 -161243300#1 161243300#1"/>
    </vehicle>
    <vehicle id="98" depart="9.80">
        <route edges="161243296 159687764#0 159687764#1 159687762#0 159687762#1 159687762#2 159687762#3 -159687809#6 -159687809#5 -159687809#4 -159687809#3 -159687809#2 -159687809#1 -159687809#0 -171796165 39407730#0 39407730#1 39407730#2 39407730#3 39407729#1 39407729#2 39407729#3 -185996692 -40152336#2"/>
    </vehicle>
    <vehicle id="99" depart="9.90">
        <route edges="-159687765#1 -159687765#0 159687804#2 159687804#3 159687764#0 159687764#1 159687762#0 159687762#1 159687762#2 159687762#3 -159687809#6 38963472#0 38963472#1 38963472#2"/>
    </vehicle>
    <vehicle id="100" depart="10.00">
        <route edges="-159687809#2 -159687809#1 -159687809#0 -171796165 39407730#0 39407730#1 39407730#2 39407730#3 39407729#1 -40497630#1 -38963475#1 -38963475#0 38963475#0"/>
    </vehicle>
    <vehicle id="102" depart="10.20">
        <route edges="-186792068 186792068 159687799 186792071#0 186792071#1 186792071#2 159687764#1 159687762#0 242852991 242852990 240357123 240357119#6 240357119#7 240357119#8 240357119#0 240357120 240357124#0 240357124#1 240357124#2 240357124#3 171990366#0 171990366#1 -38963455#4 -38963455#3 -38963455#2 -38963455#1 -38963455#0 -38963456 -183454176#1 -183454176#0 -183454177 -40152333#1 -40152333#0 40152333#0"/>
    </vehicle>
    <vehicle id="103" depart="10.30">