<?xml version="1.0" encoding="UTF-8"?>

<!-- generated on Thu Dec  7 22:34:59 2017 by SUMO polyconvert Version 0.31.0
<?xml version="1.0" encoding="UTF-8"?>

<configuration xmlns:xsi="http://www.w3.org/2001/XMLSchema-instance" xsi:noNamespaceSchemaLocation="http://sumo.dlr.de/xsd/polyconvertConfiguration.xsd">

    <input>
        <net-file value="galciana.net.xml"/>
        <osm-files value="galciana.osm"/>
        <type-file value="typemap.xml"/>
    </input>

    <output>
        <output-file value="galciana.poly.xml"/>
    </output>

    <processing>
        <poi-layer-offset value="5"/>
    </processing>

</configuration>
-->

<additional xmlns:xsi="http://www.w3.org/2001/XMLSchema-instance" xsi:noNamespaceSchemaLocation="http://sumo.dlr.de/xsd/additional_file.xsd">
    <location netOffset="-663366.04,-4859982.96" convBoundary="-626.66,-7579.69,6797.87,3779.77" origBoundary="11.024580,43.806194,11.117650,43.907936" projParameter="+proj=utm +zone=32 +ellps=WGS84 +datum=WGS84 +units=m +no_defs"/>

    <poly id="148590686" type="building" color="255,230,230" fill="1" layer="-1.00" shape="2022.39,1399.40 2034.00,1415.68 2038.37,1412.59 2032.31,1404.07 2036.38,1401.45 2025.48,1385.12 2021.37,1388.70 2023.43,1392.45 2025.43,1395.05 2024.05,1398.19 2022.39,1399.40"/>
    <poly id="148590687" type="building" color="255,230,230" fill="1" layer="-1.00" shape="1790.09,1659.99 1790.81,1659.42 1786.43,1653.88 1785.71,1654.44 1785.60,1654.31 1779.82,1658.85 1779.93,1658.97 1769.52,1667.15 1773.91,1672.70 1784.32,1664.53 1792.00,1674.23 1797.77,1669.70 1790.09,1659.99"/>
    <poly id="148590688" type="building" color="255,230,230" fill="1" layer="-1.00" shape="1869.73,1595.07 1870.00,1594.84 1868.64,1593.23 1878.64,1584.90 1875.03,1580.61 1863.52,1590.21 1865.50,1592.59 1862.55,1595.06 1861.88,1593.60 1853.57,1597.34 1856.96,1604.80 1859.88,1603.48 1870.83,1620.76 1881.69,1613.94 1869.73,1595.07"/>
    <poly id="148590691" type="building" color="255,230,230" fill="1" layer="-1.00" shape="1892.18,1611.12 1899.49,1623.28 1907.48,1618.51 1900.17,1606.35 1892.18,1611.12"/>
    <poly id="148590693" type="building" color="255,230,230" fill="1" layer="-1.00" shape="2116.97,1415.15 2123.15,1424.83 2134.04,1417.93 2127.86,1408.24 2116.97,1415.15"/>
    <poly id="148590694" type="building" color="255,230,230" fill="1" layer="-1.00" shape="1979.65,1375.22 1985.04,1382.19 1996.86,1373.10 1991.46,1366.14 1979.65,1375.22"/>
    <poly id="148590695" type="building" color="255,230,230" fill="1" layer="-1.00" shape="2006.01,1412.34 2015.93,1426.83 2025.44,1420.35 2015.52,1405.88 2006.01,1412.34"/>
    <poly id="148590696" type="building" color="255,230,230" fill="1" layer="-1.00" shape="1969.38,1471.79 1975.98,1482.52 1981.44,1479.19 1974.83,1468.46 1969.38,1471.79"/>
    <poly id="148590697" type="building" color="255,230,230" fill="1" layer="-1.00" shape="1911.07,1510.46 1918.41,1521.55 1922.78,1518.68 1915.44,1507.59 1911.07,1510.46"/>
    <poly id="148590698" type="building" color="255,230,230" fill="1" layer="-1.00" shape="1937.92,1482.07 1946.10,1494.55 1953.63,1489.66 1945.46,1477.17 1937.92,1482.07"/>
    <poly id="148590699" type="building" color="255,230,230" fill="1" layer="-1.00" shape="1827.87,1696.78 1829.47,1700.35 1835.15,1697.82 1833.56,1694.26 1827.87,1696.78"/>
    <poly id="148590700" type="building" color="255,230,230" fill="1" layer="-1.00" shape="2037.41,1377.95 2040.56,1383.57 2050.72,1377.94 2047.57,1372.31 2037.41,1377.95"/>
    <poly id="148590702" type="building" color="255,230,230" fill="1" layer="-1.00" shape="2099.52,1472.99 2102.83,1483.59 2108.27,1481.92 2104.96,1471.30 2099.52,1472.99"/>
    <poly id="148590703" type="building" color="255,230,230" fill="1" layer="-1.00" shape="2028.10,1431.46 2036.50,1442.94 2041.64,1439.20 2033.24,1427.72 2028.10,1431.46"/>
    <poly id="148590704" type="building" color="255,230,230" fill="1" layer="-1.00" shape="1966.56,1439.22 1973.29,1448.85 1979.89,1444.27 1973.16,1434.64 1966.56,1439.22"/>
    <poly id="148590705" type="building" color="255,230,230" fill="1" layer="-1.00" shape="2189.98,1408.88 2196.68,1420.86 2206.02,1415.67 2199.33,1403.69 2189.98,1408.88"/>
    <poly id="148590706" type="building" color="255,230,230" fill="1" layer="-1.00" shape="2152.98,1403.26 2167.95,1427.33 2179.81,1420.01 2164.84,1395.94 2152.98,1403.26"/>
    <poly id="148590707" type="building" color="255,230,230" fill="1" layer="-1.00" shape="2010.98,1506.53 2019.51,1517.66 2024.33,1513.99 2015.79,1502.86 2010.98,1506.53"/>
    <poly id="148590708" type="building" color="255,230,230" fill="1" layer="-1.00" shape="1895.44,1599.81 1888.27,1605.18 1892.18,1610.38 1899.35,1605.01 1895.44,1599.81"/>
    <poly id="148590709" type="building" color="255,230,230" fill="1" layer="-1.00" shape="1998.64,1452.49 2006.24,1463.25 2019.10,1454.22 2011.49,1443.46 1998.64,1452.49"/>
    <poly id="148590710" type="building" color="255,230,230" fill="1" layer="-1.00" shape="1940.66,1523.72 1948.12,1534.82 1952.25,1532.05 1944.80,1520.95 1940.66,1523.72"/>
    <poly id="148590711" type="building" color="255,230,230" fill="1" layer="-1.00" shape="2129.42,1407.79 2136.72,1418.66 2147.60,1411.38 2140.31,1400.53 2129.42,1407.79"/>
    <poly id="148590713" type="building" color="255,230,230" fill="1" layer="-1.00" shape="2044.85,1422.93 2051.73,1433.07 2057.56,1429.14 2050.67,1419.01 2044.85,1422.93"/>
    <poly id="148590716" type="building" color="255,230,230" fill="1" layer="-1.00" shape="1949.01,1450.65 1960.00,1467.23 1967.56,1462.25 1956.57,1445.67 1949.01,1450.65"/>
    <poly id="148590717" type="building" color="255,230,230" fill="1" layer="-1.00" shape="1821.52,1628.00 1827.69,1641.53 1837.85,1636.95 1831.68,1623.41 1821.52,1628.00"/>
    <poly id="148590718" type="building" color="255,230,230" fill="1" layer="-1.00" shape="1947.10,1494.78 1949.79,1500.27 1957.41,1496.57 1954.72,1491.07 1947.10,1494.78"/>
    <poly id="148590720" type="building" color="255,230,230" fill="1" layer="-1.00" shape="1813.92,1689.39 1820.04,1686.69 1818.24,1682.62 1812.11,1685.32 1813.92,1689.39"/>
    <poly id="148590722" type="building" color="255,230,230" fill="1" layer="-1.00" shape="2035.90,1426.22 2044.30,1437.90 2050.30,1433.62 2041.91,1421.94 2035.90,1426.22"/>
    <poly id="148590725" type="building" color="255,230,230" fill="1" layer="-1.00" shape="2145.80,1425.10 2160.25,1448.33 2169.39,1442.69 2154.94,1419.44 2145.80,1425.10"/>
    <poly id="148590727" type="building" color="255,230,230" fill="1" layer="-1.00" shape="1727.18,1701.07 1732.49,1707.85 1738.99,1702.79 1733.69,1696.01 1727.18,1701.07"/>
    <poly id="148590732" type="building" color="255,230,230" fill="1" layer="-1.00" shape="1860.80,1665.47 1865.78,1675.98 1874.74,1671.77 1869.76,1661.25 1860.80,1665.47"/>
    <poly id="148590733" type="building" color="255,230,230" fill="1" layer="-1.00" shape="2003.82,1344.95 2010.12,1355.78 2015.58,1352.62 2009.28,1341.80 2003.82,1344.95"/>
    <poly id="148590734" type="building" color="255,230,230" fill="1" layer="-1.00" shape="1900.78,1482.18 1907.70,1492.41 1912.98,1488.86 1906.07,1478.63 1900.78,1482.18"/>
    <poly id="148590735" type="building" color="255,230,230" fill="1" layer="-1.00" shape="2136.09,1454.38 2143.56,1466.38 2151.61,1461.40 2144.15,1449.40 2136.09,1454.38"/>
    <poly id="148590736" type="building" color="255,230,230" fill="1" layer="-1.00" shape="1765.40,1705.58 1771.79,1716.65 1783.22,1710.10 1776.82,1699.03 1765.40,1705.58"/>
    <poly id="148590737" type="building" color="255,230,230" fill="1" layer="-1.00" shape="2102.01,1420.55 2108.05,1430.09 2118.16,1423.74 2112.12,1414.20 2102.01,1420.55"/>
    <poly id="148590738" type="building" color="255,230,230" fill="1" layer="-1.00" shape="1983.28,1528.61 1990.64,1539.00 1996.90,1534.60 1989.53,1524.21 1983.28,1528.61"/>
    <poly id="148590739" type="building" color="255,230,230" fill="1" layer="-1.00" shape="1952.84,1556.33 1960.68,1566.48 1974.16,1556.15 1966.32,1546.00 1952.84,1556.33"/>
    <poly id="148590741" type="building" color="255,230,230" fill="1" layer="-1.00" shape="2029.96,1463.58 2037.01,1473.15 2046.17,1466.46 2039.12,1456.89 2029.96,1463.58"/>
    <poly id="148590743" type="building" color="255,230,230" fill="1" layer="-1.00" shape="2065.14,1479.34 2067.59,1486.44 2076.99,1483.23 2074.54,1476.12 2065.14,1479.34"/>
    <poly id="148590745" type="building" color="255,230,230" fill="1" layer="-1.00" shape="1955.26,1483.31 1961.40,1492.22 1974.95,1482.94 1968.82,1474.03 1955.26,1483.31"/>
    <poly id="148590746" type="building" color="255,230,230" fill="1" layer="-1.00" shape="1927.37,1464.00 1932.49,1472.19 1944.52,1464.73 1939.39,1456.54 1927.37,1464.00"/>
    <poly id="148590747" type="building" color="255,230,230" fill="1" layer="-1.00" shape="1816.19,1692.47 1820.98,1703.16 1827.53,1700.24 1822.75,1689.56 1816.19,1692.47"/>
    <poly id="148590748" type="building" color="255,230,230" fill="1" layer="-1.00" shape="2182.16,1396.31 2188.86,1407.85 2199.20,1401.77 2193.03,1391.09 2182.16,1396.31"/>
    <poly id="148590749" type="building" color="255,230,230" fill="1" layer="-1.00" shape="2029.04,1498.44 2037.11,1508.84 2047.92,1500.52 2039.84,1490.11 2029.04,1498.44"/>
    <poly id="148590750" type="building" color="255,230,230" fill="1" layer="-1.00" shape="1881.46,1563.76 1888.96,1572.96 1901.53,1562.78 1894.03,1553.58 1881.46,1563.76"/>
    <poly id="148590751" type="building" color="255,230,230" fill="1" layer="-1.00" shape="2076.78,1435.72 2082.39,1445.53 2106.27,1431.99 2100.65,1422.17 2076.78,1435.72"/>
    <poly id="148590752" type="building" color="255,230,230" fill="1" layer="-1.00" shape="2019.11,1435.46 2025.71,1446.30 2032.34,1442.28 2025.75,1431.45 2019.11,1435.46"/>
    <poly id="148590753" type="building" color="255,230,230" fill="1" layer="-1.00" shape="1973.67,1433.46 1981.19,1443.61 1991.70,1435.87 1984.18,1425.72 1973.67,1433.46"/>
    <poly id="148590754" type="building" color="255,230,230" fill="1" layer="-1.00" shape="2045.97,1395.38 2049.83,1401.31 2060.20,1394.62 2056.35,1388.69 2045.97,1395.38"/>
    <poly id="148590757" type="building" color="255,230,230" fill="1" layer="-1.00" shape="2003.67,1513.23 2011.97,1524.11 2017.92,1519.61 2009.62,1508.72 2003.67,1513.23"/>
    <poly id="148590759" type="building" color="255,230,230" fill="1" layer="-1.00" shape="1805.47,1697.57 1809.93,1707.57 1818.88,1703.61 1814.42,1693.60 1805.47,1697.57"/>
    <poly id="148590766" type="building" color="255,230,230" fill="1" layer="-1.00" shape="1894.10,1486.74 1900.93,1496.78 1904.41,1494.42 1897.59,1484.39 1894.10,1486.74"/>
    <poly id="148590767" type="building" color="255,230,230" fill="1" layer="-1.00" shape="2058.52,1412.89 2065.94,1424.60 2077.78,1416.65 2070.64,1405.66 2058.52,1412.89"/>
    <poly id="148590769" type="building" color="255,230,230" fill="1" layer="-1.00" shape="2004.46,1481.45 2010.87,1491.82 2031.18,1479.34 2024.77,1468.98 2004.46,1481.45"/>
    <poly id="148590770" type="building" color="255,230,230" fill="1" layer="-1.00" shape="1735.47,1664.50 1742.83,1674.89 1760.00,1662.81 1752.64,1652.42 1735.47,1664.50"/>
    <poly id="148590771" type="building" color="255,230,230" fill="1" layer="-1.00" shape="1921.29,1536.76 1928.53,1547.14 1946.47,1534.71 1939.23,1524.33 1921.29,1536.76"/>
    <poly id="148590772" type="building" color="255,230,230" fill="1" layer="-1.00" shape="1946.67,1545.97 1950.83,1550.82 1963.17,1540.29 1959.00,1535.44 1946.67,1545.97"/>
    <poly id="148590775" type="building" color="255,230,230" fill="1" layer="-1.00" shape="2150.39,1457.31 2156.31,1466.83 2166.06,1460.81 2160.14,1451.28 2150.39,1457.31"/>
    <poly id="148590776" type="building" color="255,230,230" fill="1" layer="-1.00" shape="2100.64,1448.43 2104.01,1458.97 2111.99,1456.45 2108.62,1445.90 2100.64,1448.43"/>
    <poly id="148590777" type="building" color="255,230,230" fill="1" layer="-1.00" shape="1774.30,1635.10 1782.13,1645.73 1800.03,1632.64 1792.20,1622.00 1774.30,1635.10"/>
    <poly id="148590778" type="building" color="255,230,230" fill="1" layer="-1.00" shape="2059.84,1445.11 2065.89,1454.80 2072.93,1450.43 2066.90,1440.74 2059.84,1445.11"/>
    <poly id="148590780" type="building" color="255,230,230" fill="1" layer="-1.00" shape="1847.55,1582.44 1850.79,1589.55 1862.12,1584.43 1858.88,1577.32 1847.55,1582.44"/>
    <poly id="148590781" type="building" color="255,230,230" fill="1" layer="-1.00" shape="2106.74,1469.61 2111.16,1481.25 2116.06,1479.40 2111.64,1467.77 2106.74,1469.61"/>
    <poly id="148590782" type="building" color="255,230,230" fill="1" layer="-1.00" shape="2090.37,1455.42 2094.46,1469.60 2104.05,1466.86 2099.96,1452.67 2090.37,1455.42"/>
    <poly id="148590786" type="building" color="255,230,230" fill="1" layer="-1.00" shape="1773.51,1675.80 1791.54,1702.08 1798.64,1697.26 1780.61,1670.97 1773.51,1675.80"/>
    <poly id="148590787" type="building" color="255,230,230" fill="1" layer="-1.00" shape="1758.75,1647.76 1765.88,1657.43 1777.81,1648.68 1770.67,1639.01 1758.75,1647.76"/>
    <poly id="148590790" type="building" color="255,230,230" fill="1" layer="-1.00" shape="1921.58,1601.29 1926.48,1610.32 1934.30,1606.10 1929.41,1597.08 1921.58,1601.29"/>
    <poly id="148590791" type="building" color="255,230,230" fill="1" layer="-1.00" shape="2052.72,1450.06 2059.73,1460.76 2065.33,1457.13 2058.31,1446.42 2052.72,1450.06"/>
    <poly id="148590795" type="building" color="255,230,230" fill="1" layer="-1.00" shape="1906.76,1477.70 1913.77,1487.64 1920.42,1482.97 1913.40,1473.04 1906.76,1477.70"/>
    <poly id="148590797" type="building" color="255,230,230" fill="1" layer="-1.00" shape="2123.76,1438.77 2131.99,1452.01 2142.04,1445.80 2133.81,1432.57 2123.76,1438.77"/>
    <poly id="148590799" type="building" color="255,230,230" fill="1" layer="-1.00" shape="1903.29,1516.79 1910.54,1526.69 1917.09,1521.93 1909.84,1512.03 1903.29,1516.79"/>
    <poly id="148590800" type="building" color="255,230,230" fill="1" layer="-1.00" shape="1976.52,1468.84 1982.95,1478.36 2004.65,1463.82 1998.22,1454.30 1976.52,1468.84"/>
    <poly id="148590801" type="building" color="255,230,230" fill="1" layer="-1.00" shape="2024.09,1362.52 2027.79,1368.60 2038.99,1361.82 2035.29,1355.75 2024.09,1362.52"/>
    <poly id="148590802" type="building" color="255,230,230" fill="1" layer="-1.00" shape="1967.50,1541.27 1974.14,1551.64 1987.63,1543.05 1980.98,1532.69 1967.50,1541.27"/>
    <poly id="148590803" type="building" color="255,230,230" fill="1" layer="-1.00" shape="1794.49,1678.67 1801.26,1690.59 1808.49,1686.50 1801.72,1674.59 1794.49,1678.67"/>
    <poly id="148590804" type="building" color="255,230,230" fill="1" layer="-1.00" shape="2030.49,1368.15 2034.85,1374.88 2045.94,1367.75 2041.57,1361.02 2030.49,1368.15"/>
    <poly id="148590805" type="building" color="255,230,230" fill="1" layer="-1.00" shape="2085.33,1475.04 2090.22,1485.14 2096.08,1482.31 2091.19,1472.22 2085.33,1475.04"/>
    <poly id="148590806" type="building" color="255,230,230" fill="1" layer="-1.00" shape="1915.07,1472.07 1922.18,1482.51 1927.97,1478.59 1920.86,1468.16 1915.07,1472.07"/>
    <poly id="148590807" type="building" color="255,230,230" fill="1" layer="-1.00" shape="2019.16,1503.17 2028.63,1515.03 2034.80,1510.14 2025.34,1498.28 2019.16,1503.17"/>
    <poly id="148590809" type="building" color="255,230,230" fill="1" layer="-1.00" shape="1895.27,1572.77 1901.27,1580.51 1909.86,1573.90 1903.86,1566.16 1895.27,1572.77"/>
    <poly id="148590810" type="building" color="255,230,230" fill="1" layer="-1.00" shape="2069.11,1440.08 2075.12,1450.91 2081.15,1447.58 2075.13,1436.76 2069.11,1440.08"/>
    <poly id="148590812" type="building" color="255,230,230" fill="1" layer="-1.00" shape="1792.37,1716.36 1803.89,1710.55 1800.52,1703.93 1789.00,1709.74 1792.37,1716.36"/>
    <poly id="148590813" type="building" color="255,230,230" fill="1" layer="-1.00" shape="1915.53,1576.95 1921.19,1588.24 1951.59,1573.08 1945.93,1561.79 1915.53,1576.95"/>
    <poly id="148590814" type="building" color="255,230,230" fill="1" layer="-1.00" shape="1940.47,1456.68 1949.31,1470.69 1957.18,1465.76 1948.34,1451.75 1940.47,1456.68"/>
    <poly id="148590815" type="building" color="255,230,230" fill="1" layer="-1.00" shape="1814.03,1651.65 1821.01,1666.98 1834.63,1660.83 1827.66,1645.50 1814.03,1651.65"/>
    <poly id="148590816" type="building" color="255,230,230" fill="1" layer="-1.00" shape="1814.37,1604.45 1819.91,1616.10 1826.43,1613.02 1820.88,1601.38 1814.37,1604.45"/>
    <poly id="148590817" type="building" color="255,230,230" fill="1" layer="-1.00" shape="2058.39,1482.59 2063.73,1495.00 2068.87,1492.81 2063.52,1480.40 2058.39,1482.59"/>
    <poly id="148590818" type="building" color="255,230,230" fill="1" layer="-1.00" shape="1713.14,1681.74 1720.75,1691.65 1735.87,1680.14 1728.26,1670.22 1713.14,1681.74"/>
    <poly id="148590821" type="building" color="255,230,230" fill="1" layer="-1.00" shape="1737.22,1709.14 1742.05,1715.91 1752.79,1708.29 1747.96,1701.53 1737.22,1709.14"/>
    <poly id="148590822" type="building" color="255,230,230" fill="1" layer="-1.00" shape="1924.09,1503.29 1930.20,1513.10 1937.81,1508.39 1931.70,1498.58 1924.09,1503.29"/>
    <poly id="148590823" type="building" color="255,230,230" fill="1" layer="-1.00" shape="2162.14,1452.37 2168.37,1462.38 2178.85,1455.91 2172.62,1445.89 2162.14,1452.37"/>
    <poly id="148590824" type="building" color="255,230,230" fill="1" layer="-1.00" shape="1995.85,1349.87 2002.16,1360.13 2008.11,1356.50 2001.80,1346.23 1995.85,1349.87"/>
    <poly id="148590825" type="building" color="255,230,230" fill="1" layer="-1.00" shape="1989.08,1386.14 2002.43,1406.82 2013.21,1399.91 1999.87,1379.23 1989.08,1386.14"/>
    <poly id="148590828" type="building" color="255,230,230" fill="1" layer="-1.00" shape="2118.82,1466.22 2123.82,1477.30 2137.88,1471.00 2132.87,1459.92 2118.82,1466.22"/>
    <poly id="148590829" type="building" color="255,230,230" fill="1" layer="-1.00" shape="1916.53,1506.44 1923.87,1517.42 1929.27,1513.83 1921.92,1502.86 1916.53,1506.44"/>
    <poly id="148590830" type="building" color="255,230,230" fill="1" layer="-1.00" shape="1888.54,1526.03 1895.54,1536.41 1908.25,1527.89 1901.24,1517.51 1888.54,1526.03"/>
    <poly id="148590831" type="building" color="255,230,230" fill="1" layer="-1.00" shape="2178.84,1431.48 2193.65,1455.26 2204.36,1448.65 2189.56,1424.85 2178.84,1431.48"/>
    <poly id="148590832" type="building" color="255,230,230" fill="1" layer="-1.00" shape="2040.08,1385.55 2044.73,1393.78 2055.93,1387.49 2051.28,1379.27 2040.08,1385.55"/>
    <poly id="148590833" type="building" color="255,230,230" fill="1" layer="-1.00" shape="2048.84,1484.97 2053.43,1495.14 2061.06,1491.73 2056.47,1481.55 2048.84,1484.97"/>
    <poly id="148590834" type="building" color="255,230,230" fill="1" layer="-1.00" shape="1991.53,1522.88 1998.89,1532.79 2008.18,1525.94 2000.81,1516.04 1991.53,1522.88"/>
    <poly id="148590835" type="building" color="255,230,230" fill="1" layer="-1.00" shape="1911.18,1603.52 1917.08,1615.19 1924.83,1611.28 1918.93,1599.63 1911.18,1603.52"/>
    <poly id="148590836" type="building" color="255,230,230" fill="1" layer="-1.00" shape="2042.43,1456.20 2049.58,1467.20 2056.00,1463.04 2048.86,1452.05 2042.43,1456.20"/>
    <poly id="148590837" type="building" color="255,230,230" fill="1" layer="-1.00" shape="2199.82,1420.80 2204.70,1431.31 2211.47,1428.19 2206.60,1417.68 2199.82,1420.80"/>
    <poly id="148590838" type="building" color="255,230,230" fill="1" layer="-1.00" shape="2176.07,1382.35 2183.65,1393.64 2194.77,1388.70 2186.10,1375.68 2176.07,1382.35"/>
    <poly id="148590839" type="building" color="255,230,230" fill="1" layer="-1.00" shape="2010.78,1340.85 2017.65,1351.55 2029.68,1343.88 2022.81,1333.17 2010.78,1340.85"/>
    <poly id="148590842" type="building" color="255,230,230" fill="1" layer="-1.00" shape="1899.51,1550.81 1905.80,1561.16 1926.50,1548.68 1920.21,1538.32 1899.51,1550.81"/>
    <poly id="148590843" type="building" color="255,230,230" fill="1" layer="-1.00" shape="1829.04,1598.53 1836.75,1614.26 1846.08,1609.73 1838.38,1594.00 1829.04,1598.53"/>
    <poly id="148590844" type="building" color="255,230,230" fill="1" layer="-1.00" shape="1902.52,1626.09 1907.75,1635.83 1917.54,1630.60 1912.31,1620.86 1902.52,1626.09"/>
    <poly id="148590845" type="building" color="255,230,230" fill="1" layer="-1.00" shape="1880.77,1606.91 1885.11,1615.25 1889.22,1613.12 1884.89,1604.79 1880.77,1606.91"/>
    <poly id="148590847" type="building" color="255,230,230" fill="1" layer="-1.00" shape="1985.78,1425.51 1992.98,1436.56 2002.27,1430.54 1995.08,1419.49 1985.78,1425.51"/>
    <poly id="148590848" type="building" color="255,230,230" fill="1" layer="-1.00" shape="1932.81,1497.57 1938.93,1507.58 1945.44,1503.63 1939.33,1493.61 1932.81,1497.57"/>
    <poly id="148590849" type="building" color="255,230,230" fill="1" layer="-1.00" shape="1972.04,1365.51 1977.96,1374.05 1989.01,1366.43 1983.09,1357.89 1972.04,1365.51"/>
    <poly id="148590850" type="building" color="255,230,230" fill="1" layer="-1.00" shape="2051.70,1417.41 2058.99,1428.55 2064.66,1424.87 2057.36,1413.73 2051.70,1417.41"/>
    <poly id="148590851" type="building" color="255,230,230" fill="1" layer="-1.00" shape="1957.64,1444.73 1968.41,1461.81 1975.08,1457.63 1964.29,1440.55 1957.64,1444.73"/>
    <poly id="148590852" type="building" color="255,230,230" fill="1" layer="-1.00" shape="1823.45,1588.78 1828.00,1597.44 1838.04,1592.20 1833.49,1583.54 1823.45,1588.78"/>
    <poly id="148590853" type="building" color="255,230,230" fill="1" layer="-1.00" shape="1987.52,1492.42 1994.40,1503.03 2008.06,1494.25 2001.18,1483.63 1987.52,1492.42"/>
    <poly id="148590855" type="building" color="255,230,230" fill="1" layer="-1.00" shape="1797.50,1617.44 1805.97,1636.04 1819.36,1629.98 1810.90,1611.39 1797.50,1617.44"/>
    <poly id="148590856" type="building" color="255,230,230" fill="1" layer="-1.00" shape="1838.15,1615.13 1845.51,1630.14 1854.24,1625.89 1846.87,1610.88 1838.15,1615.13"/>
    <poly id="148590857" type="building" color="255,230,230" fill="1" layer="-1.00" shape="2168.97,1437.89 2181.52,1458.09 2193.65,1455.26 2178.84,1431.48 2168.97,1437.89"/>
    <poly id="148590858" type="building" color="255,230,230" fill="1" layer="-1.00" shape="1765.39,1688.44 1773.44,1698.42 1781.27,1692.16 1773.29,1682.24 1774.57,1681.23 1766.72,1671.31 1751.91,1682.94 1759.77,1692.87 1765.39,1688.44"/>
    <poly id="148590859" type="building" color="255,230,230" fill="1" layer="-1.00" shape="1849.71,1657.64 1853.90,1665.30 1856.94,1663.64 1857.77,1665.40 1869.34,1659.95 1854.31,1628.20 1842.73,1633.65 1853.20,1655.75 1849.71,1657.64"/>
    <poly id="148590860" type="building" color="255,230,230" fill="1" layer="-1.00" shape="1884.36,1507.91 1887.78,1513.65 1903.45,1504.38 1893.96,1488.45 1893.54,1488.68 1892.92,1487.73 1871.52,1501.68 1878.24,1511.91 1884.36,1507.91"/>
    <poly id="148590861" type="building" color="255,230,230" fill="1" layer="-1.00" shape="1959.73,1511.22 1946.84,1519.25 1953.94,1530.57 1968.51,1520.44 1970.25,1519.01 1985.90,1509.06 1979.21,1498.61 1959.62,1511.04 1959.73,1511.22"/>
    <poly id="152850656" type="amenity" color="237,199,199" fill="1" layer="-1.00" shape="2267.06,1673.30 2328.49,1639.54 2382.29,1609.84 2418.13,1672.40 2424.33,1673.97 2500.87,1633.15 2534.79,1642.96 2652.56,1857.45 2575.08,1893.33 2396.36,1977.20 2379.35,1965.95 2370.31,1960.36 2321.22,1953.13 2310.86,1975.18 2255.01,1948.22 2268.25,1928.53 2299.05,1905.20 2268.84,1858.02 2258.29,1843.84 2241.84,1852.80 2176.61,1732.35 2172.94,1725.39 2267.06,1673.30"/>
    <poly id="165491376" type="parking" color="184,184,179" fill="1" layer="-1.00" shape="1801.02,1828.99 1843.72,1809.15 1846.46,1807.98 1854.02,1824.71 1852.27,1831.35 1812.67,1849.03 1801.02,1828.99"/>
    <poly id="186792042" type="landuse" color="194,194,130" fill="1" layer="-3.00" shape="1966.10,938.92 2009.89,993.38 2013.19,990.58 2026.42,1006.03 2022.51,1009.36 2055.91,1048.42 2006.92,1090.01 1987.37,1067.15 1984.34,1069.72 1980.47,1065.20 1983.00,1063.04 1966.11,1040.92 1944.98,1060.12 1924.17,1059.10 1881.16,1006.47 1966.10,938.92"/>
    <poly id="206631332" type="building" color="255,230,230" fill="1" layer="-1.00" shape="2348.32,1911.84 2343.81,1904.11 2348.48,1901.41 2352.98,1909.15 2348.32,1911.84"/>
    <poly id="206631333" type="building" color="255,230,230" fill="1" layer="-1.00" shape="2423.20,1905.26 2406.35,1874.11 2396.12,1879.60 2385.66,1860.26 2395.89,1854.76 2361.25,1790.75 2409.18,1765.01 2427.97,1799.74 2457.74,1783.75 2432.23,1736.61 2458.94,1722.26 2483.87,1768.34 2492.67,1763.61 2507.52,1791.05 2523.45,1820.50 2515.22,1824.91 2533.95,1859.01 2511.30,1871.35 2491.87,1835.81 2466.57,1849.32 2478.43,1871.25 2472.05,1874.68 2474.57,1879.32 2446.00,1894.67 2447.39,1897.25 2443.64,1899.27 2441.55,1895.40 2423.20,1905.26"/>
    <poly id="206631335" type="building" color="255,230,230" fill="1" layer="-1.00" shape="2321.63,1941.54 2306.32,1914.32 2378.05,1874.25 2393.36,1901.47 2321.63,1941.54"/>
    <poly id="206631338" type="building" color="255,230,230" fill="1" layer="-1.00" shape="2361.78,1856.33 2366.87,1864.90 2372.27,1861.72 2367.19,1853.16 2361.78,1856.33"/>
    <poly id="206631339" type="building" color="255,230,230" fill="1" layer="-1.00" shape="2462.03,1761.06 2459.18,1755.74 2464.19,1753.07 2467.04,1758.38 2462.03,1761.06"/>
    <poly id="206631342" type="building" color="255,230,230" fill="1" layer="-1.00" shape="2518.19,1850.78 2512.61,1853.69 2509.57,1847.90 2515.14,1844.99 2518.19,1850.78"/>
    <poly id="206631343" type="leisure" color="207,245,201" fill="1" layer="-2.00" shape="2385.52,1389.67 2351.10,1334.54 2440.35,1279.21 2474.76,1334.34 2385.52,1389.67"/>
    <poly id="206631343#1" type="sport" color="79,230,125" fill="1" layer="-2.00" shape="2385.52,1389.67 2351.10,1334.54 2440.35,1279.21 2474.76,1334.34 2385.52,1389.67"/>
    <poly id="206631346" type="building" color="255,230,230" fill="1" layer="-1.00" shape="2432.66,1837.48 2422.85,1819.26 2435.67,1812.40 2445.48,1830.63 2432.66,1837.48"/>
    <poly id="206631348" type="leisure" color="207,245,201" fill="1" layer="-2.00" shape="2342.46,1425.27 2305.46,1364.72 2341.03,1343.14 2378.02,1403.69 2342.46,1425.27"/>
    <poly id="206631348#1" type="sport" color="79,230,125" fill="1" layer="-2.00" shape="2342.46,1425.27 2305.46,1364.72 2341.03,1343.14 2378.02,1403.69 2342.46,1425.27"/>
    <poly id="206631351" type="building" color="255,230,230" fill="1" layer="-1.00" shape="2496.67,1802.23 2493.99,1797.28 2499.00,1794.59 2501.68,1799.54 2496.67,1802.23"/>
    <poly id="206631352" type="leisure" color="207,245,201" fill="1" layer="-2.00" shape="2370.10,1239.69 2344.73,1199.14 2417.65,1153.84 2443.02,1194.39 2370.10,1239.69"/>
    <poly id="206631352#1" type="sport" color="79,230,125" fill="1" layer="-2.00" shape="2370.10,1239.69 2344.73,1199.14 2417.65,1153.84 2443.02,1194.39 2370.10,1239.69"/>
    <poly id="206631355" type="building" color="255,230,230" fill="1" layer="-1.00" shape="2448.74,1880.84 2441.89,1868.86 2447.13,1865.89 2453.97,1877.89 2448.74,1880.84"/>
    <poly id="206631357" type="building" color="255,230,230" fill="1" layer="-1.00" shape="2462.85,1838.92 2444.56,1805.93 2476.87,1788.15 2495.16,1821.13 2462.85,1838.92"/>
    <poly id="206631359" type="building" color="255,230,230" fill="1" layer="-1.00" shape="2408.28,1808.38 2397.81,1789.84 2403.00,1786.95 2413.46,1805.48 2408.28,1808.38"/>
    <poly id="206631360" type="leisure" color="207,245,201" fill="1" layer="-2.00" shape="2311.00,1298.11 2258.88,1212.25 2314.02,1179.02 2366.14,1264.87 2311.00,1298.11"/>
    <poly id="206631360#1" type="sport" color="79,230,125" fill="1" layer="-2.00" shape="2311.00,1298.11 2258.88,1212.25 2314.02,1179.02 2366.14,1264.87 2311.00,1298.11"/>
    <poly id="206631362" type="building" color="255,230,230" fill="1" layer="-1.00" shape="2375.59,1898.34 2371.31,1890.47 2376.74,1887.54 2381.01,1895.42 2375.59,1898.34"/>
    <poly id="229759344" type="parking" color="184,184,179" fill="1" layer="-1.00" shape="2465.16,1661.98 2513.35,1748.85 2543.23,1803.25 2551.95,1818.98 2534.53,1828.69 2554.34,1863.90 2573.77,1853.85 2583.99,1872.78 2588.05,1870.36 2590.33,1873.86 2591.02,1874.54 2591.86,1875.10 2592.88,1875.59 2594.12,1875.87 2595.18,1875.78 2596.18,1875.53 2597.37,1875.02 2599.28,1873.99 2601.52,1878.01 2628.31,1863.81 2625.95,1859.37 2630.35,1856.82 2587.49,1779.42 2557.82,1725.95 2528.10,1672.58 2526.15,1673.73 2523.77,1669.28 2521.75,1670.43 2518.95,1665.69 2493.12,1646.54 2465.16,1661.98"/>
    <poly id="229759347" type="parking" color="184,184,179" fill="1" layer="-1.00" shape="2241.84,1852.80 2176.61,1732.35 2271.48,1680.67 2313.52,1756.75 2346.10,1815.70 2268.84,1858.02 2258.29,1843.84 2241.84,1852.80"/>
    <poly id="232121474" type="leisure" color="207,245,201" fill="1" layer="-2.00" shape="1152.30,1539.35 1123.10,1505.91 1045.52,1562.64 1077.10,1604.72 1115.60,1575.99 1124.18,1563.34 1137.97,1549.10 1152.30,1539.35"/>
    <poly id="233379197" type="parking" color="184,184,179" fill="1" layer="-1.00" shape="1788.58,1446.71 1805.83,1435.36 1820.20,1457.01 1802.95,1468.38 1788.58,1446.71"/>
    <poly id="240357134" type="parking" color="184,184,179" fill="1" layer="-1.00" shape="1072.11,1479.89 1093.02,1461.44 1098.57,1468.69 1113.33,1489.06 1115.70,1494.08 1115.30,1496.02 1104.06,1503.73 1094.84,1510.23 1072.11,1479.89"/>
    <poly id="242852999" type="parking" color="184,184,179" fill="1" layer="-1.00" shape="1106.41,1601.37 1111.29,1608.06 1115.96,1614.46 1140.48,1596.69 1163.75,1579.83 1154.19,1566.73 1130.97,1583.57 1106.41,1601.37"/>
    <poly id="242853000" type="parking" color="184,184,179" fill="1" layer="-1.00" shape="1246.74,1711.92 1251.94,1717.66 1257.19,1723.44 1261.85,1728.68 1286.95,1707.42 1274.40,1693.32 1271.05,1696.68 1267.68,1693.06 1246.74,1711.92"/>