<?xml version="1.0"?>
<!-- generated on 2017-12-07 21:27:38.773677 by $Id$
  options: -n galciana.net.xml -r galciana.rou.xml -e 100 -l
-->
<routes xmlns:xsi="http://www.w3.org/2001/XMLSchema-instance" xsi:noNamespaceSchemaLocation="http://sumo.dlr.de/xsd/routes_file.xsd">
    <trip id="0" depart="0.00" from="-159687804#1" to="161243324#0"/>
    <trip id="1" depart="1.00" from="-159512766#1" to="171990359"/>
    <trip id="2" depart="2.00" from="39407878#0" to="39330715"/>
    <trip id="3" depart="3.00" from="161243311" to="-40152333#0"/>
    <trip id="4" depart="4.00" from="-171990357" to="-161243324#1"/>
    <trip id="5" depart="5.00" from="159687810#1" to="40152333#1"/>
    <trip id="6" depart="6.00" from="161243302" to="39330778"/>
    <trip id="7" depart="7.00" from="238802378#1" to="-241418963#0"/>
    <trip id="8" depart="8.00" from="39330780" to="39330780"/>
    <trip id="9" depart="9.00" from="-161243318#2" to="-161243311"/>
    <trip id="10" depart="10.00" from="-40497633#1" to="186792075#1"/>
    <trip id="11" depart="11.00" from="33188635" to="460985046"/>
    <trip id="12" depart="12.00" from="-38963457#1" to="-159687799"/>
    <trip id="13" depart="13.00" from="-40497630#1" to="38963457#2"/>
    <trip id="14" depart="14.00" from="40152337" to="-40152336#2"/>
    <trip id="15" depart="15.00" from="288208347" to="40152333#1"/>
    <trip id="16" depart="16.00" from="-8024979" to="241418959#3"/>
    <trip id="17" depart="17.00" from="288208347" to="40497636#0"/>
    <trip id="18" depart="18.00" from="39313518" to="171990359"/>
    <trip id="19" depart="19.00" from="161243282#0" to="-161243311"/>
    <trip id="20" depart="20.00" from="241418959#2" to="192420388"/>
    <trip id="21" depart="21.00" from="159512779#2" to="181265861"/>
    <trip id="22" depart="22.00" from="-183454176#1" to="40497635#1"/>
    <trip id="23" depart="23.00" from="-40152336#2" to="-39330688#1"/>
    <trip id="24" depart="24.00" from="-44638790" to="-38963455#2"/>
    <trip id="25" depart="25.00" from="159687797" to="-186792046#3"/>
    <trip id="26" depart="26.00" from="-159512766#1" to="232473993#3"/>
    <trip id="27" depart="27.00" from="-186792046#3" to="288208347"/>
    <trip id="28" depart="28.00" from="40152336#2" to="288208347"/>
    <trip id="29" depart="29.00" from="-161243324#1" to="280964788"/>
    <trip id="30" depart="30.00" from="-42734568" to="161243303#0"/>
    <trip id="31" depart="31.00" from="-241418961#3" to="-181265852"/>
    <trip id="32" depart="32.00" from="161243305" to="-159687810#0"/>
    <trip id="33" depart="33.00" from="-40152333#0" to="-171990354"/>
    <trip id="34" depart="34.00" from="-161243302" to="-161243288#0"/>
    <trip id="35" depart="35.00" from="-39330705#1" to="-39330715"/>
    <trip id="36" depart="36.00" from="-159512766#0" to="241418961#2"/>
    <trip id="37" depart="37.00" from="40152336#2" to="-161243294#1"/>
    <trip id="38" depart="38.00" from="241418959#2" to="-161243288#0"/>
    <trip id="39" depart="39.00" from="-186792043#2" to="39160262"/>
    <trip id="40" depart="40.00" from="238802378#1" to="159687765#0"/>
    <trip id="41" depart="41.00" from="-186792068" to="161243294#0"/>
    <trip id="42" depart="42.00" from="241418959#0" to="161243318#1"/>
    <trip id="43" depart="43.00" from="-39846800" to="186792075#1"/>
    <trip id="44" depart="44.00" from="159687814#1" to="-129719426"/>
    <trip id="45" depart="45.00" from="40497641" to="-241418959#1"/>
    <trip id="46" depart="46.00" from="-39407745" to="161243318#1"/>
    <trip id="47" depart="47.00" from="159687796#1" to="192420388"/>
    <trip id="48" depart="48.00" from="159687793#0" to="161243294#1"/>
    <trip id="49" depart="49.00" from="186792072" to="183454176#1"/>
    <trip id="50" depart="50.00" from="-159687809#0" to="323229563"/>
    <trip id="51" depart="51.00" from="186792048" to="-186792043#2"/>
    <trip id="52" depart="52.00" from="186792043#0" to="-241418961#3"/>
    <trip id="53" depart="53.00" from="-42734565" to="171796165"/>
    <trip id="54" depart="54.00" from="44638790" to="241418959#3"/>
    <trip id="55" depart="55.00" from="-186792071#2" to="40152336#2"/>
    <trip id="56" depart="56.00" from="171795972" to="-159512766#1"/>
    <trip id="57" depart="57.00" from="280964783#2" to="280964782"/>
    <trip id="58" depart="58.00" from="-180800198" to="-159687799"/>
    <trip id="59" depart="59.00" from="-161243302" to="-186792061"/>
    <trip id="60" depart="60.00" from="288208347" to="175808452"/>
    <trip id="61" depart="61.00" from="-240357116#2" to="-241418961#1"/>
    <trip id="62" depart="62.00" from="186792068" to="159687809#3"/>
    <trip id="63" depart="63.00" from="186792043#2" to="33188635"/>
    <trip id="64" depart="64.00" from="-161243312" to="181265852"/>
    <trip id="65" depart="65.00" from="44638751" to="186792071#0"/>
    <trip id="66" depart="66.00" from="161243310" to="45778358#2"/>
    <trip id="67" depart="67.00" from="42734568" to="-171795972"/>
    <trip id="68" depart="68.00" from="-159687799" to="181265861"/>
    <trip id="69" depart="69.00" from="161243318#1" to="-161243324#1"/>
    <trip id="70" depart="70.00" from="23608147" to="-159687805"/>
    <trip id="71" depart="71.00" from="-40497630#1" to="-159687797"/>
    <trip id="72" depart="72.00" from="33188256" to="159522264#1"/>
    <trip id="73" depart="73.00" from="159522264#1" to="159687824"/>
    <trip id="74" depart="74.00" from="8024979" to="159687799"/>
    <trip id="75" depart="75.00" from="181265863#1" to="161243324#1"/>
    <trip id="76" depart="76.00" from="-159512766#1" to="40152333#0"/>
    <trip id="77" depart="77.00" from="186792072" to="159687793#0"/>
    <trip id="78" depart="78.00" from="159687812" to="288208347"/>
    <trip id="79" depart="79.00" from="311539532#0" to="-44638788"/>
    <trip id="80" depart="80.00" from="161243305" to="186792072"/>
    <trip id="81" depart="81.00" from="-148590684" to="-186792043#2"/>
    <trip id="82" depart="82.00" from="159522264#0" to="8024979"/>
    <trip id="83" depart="83.00" from="-40497630#0" to="-159512766#1"/>
    <trip id="84" depart="84.00" from="-159687810#0" to="-161243288#1"/>
    <trip id="85" depart="85.00" from="-159687809#6" to="159687775#0"/>
    <trip id="86" depart="86.00" from="161243318#0" to="40232640#0"/>
    <trip id="87" depart="87.00" from="186792080" to="238802378#1"/>
    <trip id="88" depart="88.00" from="39330780" to="40152333#0"/>
    <trip id="89" depart="89.00" from="159687804#2" to="-161243290#0"/>
    <trip id="90" depart="90.00" from="180800198" to="161243282#0"/>
    <trip id="91" depart="91.00" from="-241418961#0" to="186792051"/>
    <trip id="92" depart="92.00" from="-39330700#2" to="-186792043#2"/>
    <trip id="93" depart="93.00" from="-241418961#2" to="-40497641"/>
    <trip id="94" depart="94.00" from="171990367" to="-180800198"/>
    <trip id="95" depart="95.00" from="39330780" to="-161243296"/>
    <trip id="96" depart="96.00" from="39330688#1" to="159687804#0"/>
    <trip id="97" depart="97.00" from="40152336#2" to="39330700#3"/>
    <trip id="98" depart="98.00" from="-39846800" to="40497630#1"/>
    <trip id="99" depart="99.00" from="-39846800" to="-180800198"/>
</routes>
